/*---------------------------------------------------------------------------*\
| =========                 |                                                 |
| \\      /  F ield         | OpenFOAM: The Open Source CFD Toolbox           |
|  \\    /   O peration     | Version:  3.0.1                                 |
|   \\  /    A nd           | Web:      www.OpenFOAM.org                      |
|    \\/     M anipulation  |                                                 |
\*---------------------------------------------------------------------------*/
Build  : 3.0.1-d8a290b55d28
Exec   : checkMesh
Date   : Jun 30 2017
Time   : 10:47:33
Host   : "ubuntu"
PID    : 80544
Case   : /home/salre674/Desktop/group_codes/libwallmodelledles/tests/testCases/channel_flow
nProcs : 1
sigFpe : Enabling floating point exception trapping (FOAM_SIGFPE).
fileModificationChecking : Monitoring run-time modified files using timeStampMaster
allowSystemOperations : Allowing user-supplied system call operations

// * * * * * * * * * * * * * * * * * * * * * * * * * * * * * * * * * * * * * //
Create time

Overriding DebugSwitches according to controlDict
    wallModel       2;

    LOTWWallModel   1;

    LawOfTheWall    2;

    Spalding        2;

    ODEWallModel    2;

    EquilibriumODEWallModel 2;

Create polyMesh for time = 0

Time = 0

Mesh stats
    points:           176
    faces:            339
    internal faces:   201
    cells:            90
    faces per cell:   6
    boundary patches: 6
    point zones:      0
    face zones:       0
    cell zones:       0

Overall number of cells of each type:
    hexahedra:     90
    prisms:        0
    wedges:        0
    pyramids:      0
    tet wedges:    0
    tetrahedra:    0
    polyhedra:     0

Checking topology...
    Boundary definition OK.
    Cell to face addressing OK.
    Point usage OK.
    Upper triangular ordering OK.
    Face vertices OK.
    Number of regions: 1 (OK).

Checking patch topology for multiply connected surfaces...
    Patch               Faces    Points   Surface topology                  
    inlet               30       44       ok (non-closed singly connected)  
    outlet              30       44       ok (non-closed singly connected)  
    bottomWall          9        16       ok (non-closed singly connected)  
    topWall             9        16       ok (non-closed singly connected)  
    left                30       44       ok (non-closed singly connected)  
    right               30       44       ok (non-closed singly connected)  

Checking geometry...
    Overall domain bounding box (0 0 0) (9 2 4)
    Mesh has 3 geometric (non-empty/wedge) directions (1 1 1)
    Mesh has 3 solution (non-empty) directions (1 1 1)
    Boundary openness (8.05807e-18 -2.86509e-17 -1.61161e-17) OK.
    Max cell openness = 1.04083e-16 OK.
    Max aspect ratio = 15 OK.
    Minimum face area = 0.266667. Maximum face area = 4.  Face area magnitudes OK.
    Min volume = 0.8. Max volume = 0.8.  Total volume = 72.  Cell volumes OK.
    Mesh non-orthogonality Max: 0 average: 0
    Non-orthogonality check OK.
    Face pyramids OK.
    Max skewness = 2.04676e-15 OK.
    Coupled point location match (average 6.61807e-17) OK.

Mesh OK.

End

