/*---------------------------------------------------------------------------*\
| =========                 |                                                 |
| \\      /  F ield         | OpenFOAM: The Open Source CFD Toolbox           |
|  \\    /   O peration     | Version:  3.0.1                                 |
|   \\  /    A nd           | Web:      www.OpenFOAM.org                      |
|    \\/     M anipulation  |                                                 |
\*---------------------------------------------------------------------------*/
Build  : 3.0.1-d8a290b55d28
Exec   : pimpleFoam
Date   : Jun 30 2017
Time   : 15:49:55
Host   : "ubuntu"
PID    : 82947
Case   : /home/salre674/Desktop/group_codes/libwallmodelledles/tests/testCases/channel_flow
nProcs : 1
sigFpe : Enabling floating point exception trapping (FOAM_SIGFPE).
fileModificationChecking : Monitoring run-time modified files using timeStampMaster
allowSystemOperations : Allowing user-supplied system call operations

// * * * * * * * * * * * * * * * * * * * * * * * * * * * * * * * * * * * * * //
Create time

Overriding DebugSwitches according to controlDict
    wallModel       2;

    LOTWWallModel   1;

    LawOfTheWall    2;

    Spalding        2;

    ODEWallModel    2;

    EquilibriumODEWallModel 2;

    JohnsonKing     1;

Create mesh for time = 0

/*---------------------------------------------------------------------------*\
| =========                 |                                                 |
| \\      /  F ield         | OpenFOAM: The Open Source CFD Toolbox           |
|  \\    /   O peration     | Version:  3.0.1                                 |
|   \\  /    A nd           | Web:      www.OpenFOAM.org                      |
|    \\/     M anipulation  |                                                 |
\*---------------------------------------------------------------------------*/
Build  : 3.0.1-d8a290b55d28
Exec   : pimpleFoam
Date   : Jun 30 2017
Time   : 15:49:55
Host   : "ubuntu"
PID    : 82946
Case   : /home/salre674/Desktop/group_codes/libwallmodelledles/tests/testCases/channel_flow
nProcs : 1
sigFpe : Enabling floating point exception trapping (FOAM_SIGFPE).
fileModificationChecking : Monitoring run-time modified files using timeStampMaster
allowSystemOperations : Allowing user-supplied system call operations

// * * * * * * * * * * * * * * * * * * * * * * * * * * * * * * * * * * * * * //
Create time


PIMPLE: Operating solver in PISO mode

Reading field p

Reading field U

Overriding DebugSwitches according to controlDict
    wallModel       2;

    LOTWWallModel   1;

    LawOfTheWall    2;

    Spalding        2;

    ODEWallModel    2;

    EquilibriumODEWallModel 2;

    JohnsonKing     1;

Reading/calculating face flux field phi

Create mesh for time = 0

Selecting incompressible transport model Newtonian
Selecting turbulence model type LES
Selecting LES turbulence model WALE
Selecting LES delta type cubeRootVol
Constructing wallModelFvPatchScalarField (w3) from fvPatch, DimensionedField, and dictionary for patch bottomWall
Building sample cell index list for patch bottomWall
h is 0, for face 0 on patch bottomWall, using distance to Cn.
h is 0, for face 1 on patch bottomWall, using distance to Cn.
h is 0, for face 2 on patch bottomWall, using distance to Cn.
h is 0, for face 3 on patch bottomWall, using distance to Cn.
h is 0, for face 4 on patch bottomWall, using distance to Cn.
h is 0, for face 5 on patch bottomWall, using distance to Cn.
h is 0, for face 6 on patch bottomWall, using distance to Cn.
h is 0, for face 7 on patch bottomWall, using distance to Cn.
h is 0, for face 8 on patch bottomWall, using distance to Cn.
Constructing EddyVisocity E1

PIMPLE: Operating solver in PISO mode

Reading field p


JohnsonKing eddy viscosity model
{
    APlus    17.8
    kappa    0.39
}

Constructing ODEWallModelfvPatchScalarField (o3) from copy and DimensionedField for patch bottomWall
Reading field U

Reading/calculating face flux field phi

Updating nut for patch bottomWall
tau_w converged after 7 iterations.
tau_w converged after 7 iterations.
tau_w converged after 7 iterations.
tau_w converged after 7 iterations.
tau_w converged after 7 iterations.
Selecting incompressible transport model Newtonian
tau_w converged after 7 iterations.
tau_w converged after 7 iterations.
tau_w converged after 7 iterations.
tau_w converged after 7 iterations.
Average uTau/uTauBench/diff 0.063128 0.000755737 8253.18, patch bottomWall
tau_w converged after 7 iterations.
tau_w converged after 7 iterations.
tau_w converged after 7 iterations.
tau_w converged after 7 iterations.
tau_w converged after 7 iterations.
Selecting turbulence model type LES
tau_w converged after 7 iterations.
tau_w converged after 7 iterations.
tau_w converged after 7 iterations.
tau_w converged after 7 iterations.
WALECoeffs
    {
        Ce              1.048;
        Ck              0.094;
        Cw              0.325;
    }

No MRF models present

Selecting LES turbulence model WALE
Creating finite volume options from "system/fvOptions"

    Selecting finite volume options model type meanVelocityForce
        Source: momentumSource
        - selecting all cells
        - selected 90 cell(s) with volume 72
Selecting LES delta type cubeRootVol
    Initial pressure gradient = 0


Starting time loop

Courant Number mean: 0.00333333 max: 0.00333333
Time = 0.01

PIMPLE: iteration 1
Constructing wallModelFvPatchScalarField (w3) from fvPatch, DimensionedField, and dictionary for patch bottomWall
Building sample cell index list for patch bottomWall
h is 0, for face 0 on patch bottomWall, using distance to Cn.
h is 0, for face 1 on patch bottomWall, using distance to Cn.
h is 0, for face 2 on patch bottomWall, using distance to Cn.
h is 0, for face 3 on patch bottomWall, using distance to Cn.
h is 0, for face 4 on patch bottomWall, using distance to Cn.
h is 0, for face 5 on patch bottomWall, using distance to Cn.
h is 0, for face 6 on patch bottomWall, using distance to Cn.
h is 0, for face 7 on patch bottomWall, using distance to Cn.
h is 0, for face 8 on patch bottomWall, using distance to Cn.
Constructing EddyVisocity E1

JohnsonKing eddy viscosity model
{
    APlus    17.8
    kappa    0.39
}

Constructing ODEWallModelfvPatchScalarField (o3) from copy and DimensionedField for patch bottomWall
DILUPBiCG:  Solving for Ux, Initial residual = 1, Final residual = 0.00111214, No Iterations 1
DILUPBiCG:  Solving for Uy, Initial residual = 0.956168, Final residual = 0.00119947, No Iterations 1
DILUPBiCG:  Solving for Uz, Initial residual = 0.454347, Final residual = 0.00075741, No Iterations 1
Pressure gradient source: uncorrected Ubar = 0.999957, pressure gradient = 0.00425464
Updating nut for patch bottomWall
tau_w converged after 7 iterations.
tau_w converged after 7 iterations.
tau_w converged after 7 iterations.
tau_w converged after 7 iterations.
tau_w converged after 7 iterations.
tau_w converged after 7 iterations.
tau_w converged after 7 iterations.
tau_w converged after 7 iterations.
tau_w converged after 7 iterations.
Average uTau/uTauBench/diff 0.063128 0.000755737 8253.18, patch bottomWall
tau_w converged after 7 iterations.
tau_w converged after 7 iterations.
tau_w converged after 7 iterations.
tau_w converged after 7 iterations.
tau_w converged after 7 iterations.
tau_w converged after 7 iterations.
tau_w converged after 7 iterations.
tau_w converged after 7 iterations.
tau_w converged after 7 iterations.
WALECoeffs
    {
        Ce              1.048;
        Ck              0.094;
        Cw              0.325;
    }

No MRF models present

Creating finite volume options from "system/fvOptions"

GAMG:  Solving for p, Initial residual = 1, Final residual = 0.00321261, No Iterations 3
    Selecting finite volume options model type meanVelocityForce
time step continuity errors : sum local = 2.54479e-15, global = -2.85326e-20, cumulative = -2.85326e-20
        Source: momentumSource
Pressure gradient source: uncorrected Ubar = 0.999957, pressure gradient = 0.00425443
        - selecting all cells
        - selected 90 cell(s) with volume 72
    Initial pressure gradient = 0


Starting time loop

Courant Number mean: 0.00333333 max: 0.00333333
Time = 0.01

PIMPLE: iteration 1
GAMG:  Solving for p, Initial residual = 0.940111, Final residual = 0.00292334, No Iterations 3
time step continuity errors : sum local = 2.46884e-15, global = -1.6482e-20, cumulative = -4.50146e-20
Pressure gradient source: uncorrected Ubar = 0.999957, pressure gradient = 0.00425443
DILUPBiCG:  Solving for Ux, Initial residual = 1, Final residual = 0.00111214, No Iterations 1
DILUPBiCG:  Solving for Uy, Initial residual = 0.956168, Final residual = 0.00119947, No Iterations 1
DILUPBiCG:  Solving for Uz, Initial residual = 0.454347, Final residual = 0.00075741, No Iterations 1
Pressure gradient source: uncorrected Ubar = 0.999957, pressure gradient = 0.00425464
GAMG:  Solving for p, Initial residual = 0.100295, Final residual = 2.76559e-07, No Iterations 10
time step continuity errors : sum local = 4.31244e-19, global = -6.66067e-20, cumulative = -1.11621e-19
Pressure gradient source: uncorrected Ubar = 0.999957, pressure gradient = 0.00425443
Updating nut for patch bottomWall
tau_w converged after 1 iterations.
tau_w converged after 1 iterations.
tau_w converged after 1 iterations.
tau_w converged after 1 iterations.
tau_w converged after 1 iterations.
tau_w converged after 1 iterations.
tau_w converged after 1 iterations.
tau_w converged after 1 iterations.
tau_w converged after 1 iterations.
Average uTau/uTauBench/diff 0.0630902 0.0642301 1.77472, patch bottomWall
tau_w converged after 1 iterations.
tau_w converged after 1 iterations.
tau_w converged after 1 iterations.
tau_w converged after 1 iterations.
tau_w converged after 1 iterations.
tau_w converged after 1 iterations.
tau_w converged after 1 iterations.
tau_w converged after 1 iterations.
tau_w converged after 1 iterations.
GAMG:  Solving for p, Initial residual = 1, Final residual = 0.00321261, No Iterations 3
time step continuity errors : sum local = 2.54479e-15, global = -2.85326e-20, cumulative = -2.85326e-20
Pressure gradient source: uncorrected Ubar = 0.999957, pressure gradient = 0.00425443
GAMG:  Solving for p, Initial residual = 0.940111, Final residual = 0.00292334, No Iterations 3
ExecutionTime = 0.01 s  ClockTime = 0 s

time step continuity errors : sum local = 2.46884e-15, global = -1.6482e-20, cumulative = -4.50146e-20
Courant Number mean: 0.00333319 max: 0.00333333
Time = 0.02

PIMPLE: iteration 1
Pressure gradient source: uncorrected Ubar = 0.999957, pressure gradient = 0.00425443
DILUPBiCG:  Solving for Ux, Initial residual = 0.333285, Final residual = 0.000247017, No Iterations 1
DILUPBiCG:  Solving for Uy, Initial residual = 0.438926, Final residual = 0.000480317, No Iterations 1
DILUPBiCG:  Solving for Uz, Initial residual = 0.148904, Final residual = 0.000146467, No Iterations 1
Pressure gradient source: uncorrected Ubar = 1, pressure gradient = 0.00425243
GAMG:  Solving for p, Initial residual = 0.100295, Final residual = 2.76559e-07, No Iterations 10
time step continuity errors : sum local = 4.31244e-19, global = -6.66067e-20, cumulative = -1.11621e-19
Pressure gradient source: uncorrected Ubar = 0.999957, pressure gradient = 0.00425443
GAMG:  Solving for p, Initial residual = 0.999973, Final residual = 0.00191826, No Iterations 1
time step continuity errors : sum local = 7.91705e-16, global = -7.38452e-20, cumulative = -1.85467e-19
Pressure gradient source: uncorrected Ubar = 1, pressure gradient = 0.00425243
Updating nut for patch bottomWall
tau_w converged after 1 iterations.
tau_w converged after 1 iterations.
tau_w converged after 1 iterations.
tau_w converged after 1 iterations.
tau_w converged after 1 iterations.
tau_w converged after 1 iterations.
tau_w converged after 1 iterations.
tau_w converged after 1 iterations.
tau_w converged after 1 iterations.
Average uTau/uTauBench/diff 0.0630902 0.0642301 1.77472, patch bottomWall
tau_w converged after 1 iterations.
tau_w converged after 1 iterations.
tau_w converged after 1 iterations.
tau_w converged after 1 iterations.
tau_w converged after 1 iterations.
tau_w converged after 1 iterations.
tau_w converged after 1 iterations.
tau_w converged after 1 iterations.
tau_w converged after 1 iterations.
GAMG:  Solving for p, Initial residual = 0.999007, Final residual = 0.00185191, No Iterations 1
time step continuity errors : sum local = 5.56616e-16, global = -5.82168e-20, cumulative = -2.43683e-19
Pressure gradient source: uncorrected Ubar = 1, pressure gradient = 0.00425243
GAMG:  Solving for p, Initial residual = 0.391337, Final residual = 7.31331e-07, No Iterations 9
time step continuity errors : sum local = 3.62564e-19, global = -1.02761e-19, cumulative = -3.46444e-19
Pressure gradient source: uncorrected Ubar = 1, pressure gradient = 0.00425243
Updating nut for patch bottomWall
tau_w converged after 0 iterations.
tau_w converged after 0 iterations.
tau_w converged after 0 iterations.
tau_w converged after 0 iterations.
tau_w converged after 0 iterations.
tau_w converged after 0 iterations.
tau_w converged after 0 iterations.
tau_w converged after 0 iterations.
tau_w converged after 0 iterations.
Average uTau/uTauBench/diff 0.0630852 0.0642216 1.7694, patch bottomWall
tau_w converged after 0 iterations.
tau_w converged after 0 iterations.
tau_w converged after 0 iterations.
tau_w converged after 0 iterations.
tau_w converged after 0 iterations.
tau_w converged after 0 iterations.
tau_w converged after 0 iterations.
tau_w converged after 0 iterations.
tau_w converged after 0 iterations.
ExecutionTime = 0.02 s  ClockTime = 0 s

Courant Number mean: 0.00333319 max: 0.00333333
Time = 0.02

PIMPLE: iteration 1
DILUPBiCG:  Solving for Ux, Initial residual = 0.333285, Final residual = 0.000247017, No Iterations 1
DILUPBiCG:  Solving for Uy, Initial residual = 0.438926, Final residual = 0.000480317, No Iterations 1
DILUPBiCG:  Solving for Uz, Initial residual = 0.148904, Final residual = 0.000146467, No Iterations 1
Pressure gradient source: uncorrected Ubar = 1, pressure gradient = 0.00425243
ExecutionTime = 0.02 s  ClockTime = 0 s

Courant Number mean: 0.00333314 max: 0.00333343
Time = 0.03

PIMPLE: iteration 1
GAMG:  Solving for p, Initial residual = 0.999973, Final residual = 0.00191826, No Iterations 1
time step continuity errors : sum local = 7.91705e-16, global = -7.38452e-20, cumulative = -1.85467e-19
Pressure gradient source: uncorrected Ubar = 1, pressure gradient = 0.00425243
DILUPBiCG:  Solving for Ux, Initial residual = 0.199936, Final residual = 0.000148173, No Iterations 1
DILUPBiCG:  Solving for Uy, Initial residual = 0.0992805, Final residual = 8.2559e-05, No Iterations 1
DILUPBiCG:  Solving for Uz, Initial residual = 0.0466968, Final residual = 4.47372e-05, No Iterations 1
Pressure gradient source: uncorrected Ubar = 1, pressure gradient = 0.00425142
GAMG:  Solving for p, Initial residual = 0.999007, Final residual = 0.00185191, No Iterations 1
time step continuity errors : sum local = 5.56616e-16, global = -5.82168e-20, cumulative = -2.43683e-19
Pressure gradient source: uncorrected Ubar = 1, pressure gradient = 0.00425243
GAMG:  Solving for p, Initial residual = 0.999992, Final residual = 0.00192122, No Iterations 1
time step continuity errors : sum local = 7.91551e-16, global = -6.04975e-20, cumulative = -4.06942e-19
Pressure gradient source: uncorrected Ubar = 1, pressure gradient = 0.00425142
GAMG:  Solving for p, Initial residual = 0.99901, Final residual = 0.0018563, No Iterations 1
GAMG:  Solving for p, Initial residual = 0.391337, Final residual = 7.31331e-07, No Iterations 9
time step continuity errors : sum local = 5.5765e-16, global = -7.18442e-20, cumulative = -4.78786e-19
Pressure gradient source: uncorrected Ubar = 1, pressure gradient = 0.00425142
time step continuity errors : sum local = 3.62564e-19, global = -1.02761e-19, cumulative = -3.46444e-19
Pressure gradient source: uncorrected Ubar = 1, pressure gradient = 0.00425243
Updating nut for patch bottomWall
tau_w converged after 0 iterations.
tau_w converged after 0 iterations.
tau_w converged after 0 iterations.
tau_w converged after 0 iterations.
tau_w converged after 0 iterations.
tau_w converged after 0 iterations.
tau_w converged after 0 iterations.
tau_w converged after 0 iterations.
tau_w converged after 0 iterations.
Average uTau/uTauBench/diff 0.0630852 0.0642216 1.7694, patch bottomWall
tau_w converged after 0 iterations.
tau_w converged after 0 iterations.
tau_w converged after 0 iterations.
tau_w converged after 0 iterations.
tau_w converged after 0 iterations.
tau_w converged after 0 iterations.
tau_w converged after 0 iterations.
tau_w converged after 0 iterations.
tau_w converged after 0 iterations.
GAMG:  Solving for p, Initial residual = 0.392154, Final residual = 7.18724e-07, No Iterations 9
time step continuity errors : sum local = 4.3173e-19, global = -3.53605e-20, cumulative = -5.14146e-19
Pressure gradient source: uncorrected Ubar = 1, pressure gradient = 0.00425142
Updating nut for patch bottomWall
tau_w converged after 0 iterations.
tau_w converged after 0 iterations.
tau_w converged after 0 iterations.
tau_w converged after 0 iterations.
tau_w converged after 0 iterations.
tau_w converged after 0 iterations.
tau_w converged after 0 iterations.
tau_w converged after 0 iterations.
tau_w converged after 0 iterations.
Average uTau/uTauBench/diff 0.0630803 0.0642131 1.76412, patch bottomWall
tau_w converged after 0 iterations.
tau_w converged after 0 iterations.
tau_w converged after 0 iterations.
tau_w converged after 0 iterations.
tau_w converged after 0 iterations.
tau_w converged after 0 iterations.
tau_w converged after 0 iterations.
tau_w converged after 0 iterations.
tau_w converged after 0 iterations.
--> FOAM Warning : 
    From function rmDir(const fileName&)
    in file POSIX.C at line 990
    cannot open directory "/home/salre674/Desktop/group_codes/libwallmodelledles/tests/testCases/channel_flow/0.01"
ExecutionTime = 0.02 s  ClockTime = 0 s

Courant Number mean: 0.00333314 max: 0.00333343
Time = 0.03

PIMPLE: iteration 1
ExecutionTime = 0.02 s  ClockTime = 0 s

Courant Number mean: 0.00333313 max: 0.00333355
Time = 0.04

PIMPLE: iteration 1
DILUPBiCG:  Solving for Ux, Initial residual = 0.199936, Final residual = 0.000148173, No Iterations 1
DILUPBiCG:  Solving for Uy, Initial residual = 0.0992805, Final residual = 8.2559e-05, No Iterations 1
DILUPBiCG:  Solving for Uz, Initial residual = 0.0466968, Final residual = 4.47372e-05, No Iterations 1
DILUPBiCG:  Solving for Ux, Initial residual = 0.142793, Final residual = 0.000105817, No Iterations 1
Pressure gradient source: uncorrected Ubar = 1, pressure gradient = 0.00425142
DILUPBiCG:  Solving for Uy, Initial residual = 0.0837947, Final residual = 6.25968e-05, No Iterations 1
DILUPBiCG:  Solving for Uz, Initial residual = 0.0853918, Final residual = 8.22571e-05, No Iterations 1
Pressure gradient source: uncorrected Ubar = 1, pressure gradient = 0.0042504
GAMG:  Solving for p, Initial residual = 0.999992, Final residual = 0.00192122, No Iterations 1
GAMG:  Solving for p, Initial residual = 0.999994, Final residual = 0.0019264, No Iterations 1
time step continuity errors : sum local = 7.91551e-16, global = -6.04975e-20, cumulative = -4.06942e-19
Pressure gradient source: uncorrected Ubar = 1, pressure gradient = 0.00425142
time step continuity errors : sum local = 7.92025e-16, global = -8.78297e-21, cumulative = -5.22929e-19
Pressure gradient source: uncorrected Ubar = 1, pressure gradient = 0.0042504
GAMG:  Solving for p, Initial residual = 0.99901, Final residual = 0.0018563, No Iterations 1
time step continuity errors : sum local = 5.5765e-16, global = -7.18442e-20, cumulative = -4.78786e-19
Pressure gradient source: uncorrected Ubar = 1, pressure gradient = 0.00425142
GAMG:  Solving for p, Initial residual = 0.99901, Final residual = 0.00186302, No Iterations 1
time step continuity errors : sum local = 5.59318e-16, global = -2.20745e-20, cumulative = -5.45004e-19
Pressure gradient source: uncorrected Ubar = 1, pressure gradient = 0.0042504
GAMG:  Solving for p, Initial residual = 0.392154, Final residual = 7.18724e-07, No Iterations 9
time step continuity errors : sum local = 4.3173e-19, global = -3.53605e-20, cumulative = -5.14146e-19
Pressure gradient source: uncorrected Ubar = 1, pressure gradient = 0.00425142
GAMG:  Solving for p, Initial residual = 0.393478, Final residual = 6.95807e-07, No Iterations 9
Updating nut for patch bottomWall
tau_w converged after 0 iterations.
tau_w converged after 0 iterations.
tau_w converged after 0 iterations.
tau_w converged after 0 iterations.
tau_w converged after 0 iterations.
tau_w converged after 0 iterations.
tau_w converged after 0 iterations.
tau_w converged after 0 iterations.
tau_w converged after 0 iterations.
Average uTau/uTauBench/diff 0.0630803 0.0642131 1.76412, patch bottomWall
tau_w converged after 0 iterations.
tau_w converged after 0 iterations.
tau_w converged after 0 iterations.
time step continuity errors : sum local = 3.95254e-19, global = -4.56944e-21, cumulative = -5.49573e-19
tau_w converged after 0 iterations.
tau_w converged after 0 iterations.
tau_w converged after 0 iterations.
tau_w converged after 0 iterations.
tau_w converged after 0 iterations.
tau_w converged after 0 iterations.
Pressure gradient source: uncorrected Ubar = 1, pressure gradient = 0.0042504
Updating nut for patch bottomWall
tau_w converged after 0 iterations.
tau_w converged after 0 iterations.
tau_w converged after 0 iterations.
tau_w converged after 0 iterations.
tau_w converged after 0 iterations.
tau_w converged after 0 iterations.
tau_w converged after 0 iterations.
tau_w converged after 0 iterations.
tau_w converged after 0 iterations.
Average uTau/uTauBench/diff 0.0630754 0.0642046 1.75884, patch bottomWall
tau_w converged after 0 iterations.
tau_w converged after 0 iterations.
tau_w converged after 0 iterations.
tau_w converged after 0 iterations.
tau_w converged after 0 iterations.
tau_w converged after 0 iterations.
tau_w converged after 0 iterations.
tau_w converged after 0 iterations.
tau_w converged after 0 iterations.
ExecutionTime = 0.03 s  ClockTime = 0 s

Courant Number mean: 0.00333312 max: 0.00333369
Time = 0.05

PIMPLE: iteration 1
--> FOAM Warning : 
    From function rmDir(const fileName&)
    in file POSIX.C at line 990
    cannot open directory "/home/salre674/Desktop/group_codes/libwallmodelledles/tests/testCases/channel_flow/0.02"
ExecutionTime = 0.04 s  ClockTime = 0 s

Courant Number mean: 0.00333313 max: 0.00333355
Time = 0.04

PIMPLE: iteration 1
DILUPBiCG:  Solving for Ux, Initial residual = 0.111047, Final residual = 8.22857e-05, No Iterations 1
DILUPBiCG:  Solving for Uy, Initial residual = 0.0787213, Final residual = 6.10575e-05, No Iterations 1
DILUPBiCG:  Solving for Uz, Initial residual = 0.0454064, Final residual = 4.09538e-05, No Iterations 1
Pressure gradient source: uncorrected Ubar = 1, pressure gradient = 0.00424939
DILUPBiCG:  Solving for Ux, Initial residual = 0.142793, Final residual = 0.000105817, No Iterations 1
DILUPBiCG:  Solving for Uy, Initial residual = 0.0837947, Final residual = 6.25968e-05, No Iterations 1
DILUPBiCG:  Solving for Uz, Initial residual = 0.0853918, Final residual = 8.22571e-05, No Iterations 1
Pressure gradient source: uncorrected Ubar = 1, pressure gradient = 0.0042504
GAMG:  Solving for p, Initial residual = 0.999994, Final residual = 0.00193154, No Iterations 1
time step continuity errors : sum local = 7.92457e-16, global = 3.04424e-20, cumulative = -5.19131e-19
GAMG:  Solving for p, Initial residual = 0.999994, Final residual = 0.0019264, No Iterations 1
Pressure gradient source: uncorrected Ubar = 1, pressure gradient = 0.00424939
time step continuity errors : sum local = 7.92025e-16, global = -8.78297e-21, cumulative = -5.22929e-19
Pressure gradient source: uncorrected Ubar = 1, pressure gradient = 0.0042504
GAMG:  Solving for p, Initial residual = 0.99901, Final residual = 0.00187, No Iterations 1
time step continuity errors : sum local = 5.61152e-16, global = 9.35576e-21, cumulative = -5.09775e-19
GAMG:  Solving for p, Initial residual = 0.99901, Final residual = 0.00186302, No Iterations 1
Pressure gradient source: uncorrected Ubar = 1, pressure gradient = 0.00424939
time step continuity errors : sum local = 5.59318e-16, global = -2.20745e-20, cumulative = -5.45004e-19
Pressure gradient source: uncorrected Ubar = 1, pressure gradient = 0.0042504
GAMG:  Solving for p, Initial residual = 0.394808, Final residual = 6.7409e-07, No Iterations 9
time step continuity errors : sum local = 3.86685e-19, global = 5.55057e-20, cumulative = -4.5427e-19
GAMG:  Solving for p, Initial residual = 0.393478, Final residual = 6.95807e-07, No Iterations 9
Pressure gradient source: uncorrected Ubar = 1, pressure gradient = 0.00424939
time step continuity errors : sum local = 3.95254e-19, global = -4.56944e-21, cumulative = -5.49573e-19
Pressure gradient source: uncorrected Ubar = 1, pressure gradient = 0.0042504
Updating nut for patch bottomWall
tau_w converged after 0 iterations.
tau_w converged after 0 iterations.
tau_w converged after 0 iterations.
tau_w converged after 0 iterations.
tau_w converged after 0 iterations.
tau_w converged after 0 iterations.
tau_w converged after 0 iterations.
tau_w converged after 0 iterations.
tau_w converged after 0 iterations.
Average uTau/uTauBench/diff 0.0630704 0.0641962 1.75357, patch bottomWall
tau_w converged after 0 iterations.
tau_w converged after 0 iterations.
tau_w converged after 0 iterations.
Updating nut for patch bottomWall
tau_w converged after 0 iterations.
tau_w converged after 0 iterations.
tau_w converged after 0 iterations.
tau_w converged after 0 iterations.
tau_w converged after 0 iterations.
tau_w converged after 0 iterations.
tau_w converged after 0 iterations.
tau_w converged after 0 iterations.
tau_w converged after 0 iterations.
tau_w converged after 0 iterations.
tau_w converged after 0 iterations.
tau_w converged after 0 iterations.
tau_w converged after 0 iterations.
tau_w converged after 0 iterations.
tau_w converged after 0 iterations.
Average uTau/uTauBench/diff 0.0630754 0.0642046 1.75884, patch bottomWall
tau_w converged after 0 iterations.
tau_w converged after 0 iterations.
tau_w converged after 0 iterations.
tau_w converged after 0 iterations.
tau_w converged after 0 iterations.
tau_w converged after 0 iterations.
tau_w converged after 0 iterations.
tau_w converged after 0 iterations.
tau_w converged after 0 iterations.
ExecutionTime = 0.03 s  ClockTime = 0 s

Courant Number mean: 0.00333312 max: 0.00333383
Time = 0.06

PIMPLE: iteration 1
DILUPBiCG:  Solving for Ux, Initial residual = 0.0908447, Final residual = 6.73115e-05, No Iterations 1
DILUPBiCG:  Solving for Uy, Initial residual = 0.0539677, Final residual = 3.88996e-05, No Iterations 1
ExecutionTime = 0.04 s  ClockTime = 0 s

DILUPBiCG:  Solving for Uz, Initial residual = 0.0675719, Final residual = 5.6665e-05, No Iterations 1
Courant Number mean: 0.00333312 max: 0.00333369
Time = 0.05

PIMPLE: iteration 1
Pressure gradient source: uncorrected Ubar = 1, pressure gradient = 0.00424837
DILUPBiCG:  Solving for Ux, Initial residual = 0.111047, Final residual = 8.22857e-05, No Iterations 1
DILUPBiCG:  Solving for Uy, Initial residual = 0.0787213, Final residual = 6.10575e-05, No Iterations 1
DILUPBiCG:  Solving for Uz, Initial residual = 0.0454064, Final residual = 4.09538e-05, No Iterations 1
GAMG:  Solving for p, Initial residual = 0.999996, Final residual = 0.00193651, No Iterations 1
Pressure gradient source: uncorrected Ubar = 1, pressure gradient = 0.00424939
time step continuity errors : sum local = 7.92796e-16, global = 2.25166e-20, cumulative = -4.31753e-19
Pressure gradient source: uncorrected Ubar = 1, pressure gradient = 0.00424837
GAMG:  Solving for p, Initial residual = 0.999994, Final residual = 0.00193154, No Iterations 1
GAMG:  Solving for p, Initial residual = 0.99901, Final residual = 0.00187693, No Iterations 1
time step continuity errors : sum local = 7.92457e-16, global = 3.04424e-20, cumulative = -5.19131e-19
time step continuity errors : sum local = 5.63042e-16, global = 1.24025e-20, cumulative = -4.19351e-19
Pressure gradient source: uncorrected Ubar = 1, pressure gradient = 0.00424939
Pressure gradient source: uncorrected Ubar = 1, pressure gradient = 0.00424837
GAMG:  Solving for p, Initial residual = 0.99901, Final residual = 0.00187, No Iterations 1
time step continuity errors : sum local = 5.61152e-16, global = 9.35576e-21, cumulative = -5.09775e-19
Pressure gradient source: uncorrected Ubar = 1, pressure gradient = 0.00424939
GAMG:  Solving for p, Initial residual = 0.395739, Final residual = 6.53017e-07, No Iterations 9
time step continuity errors : sum local = 4.91336e-19, global = 4.97053e-21, cumulative = -4.1438e-19
Pressure gradient source: uncorrected Ubar = 1, pressure gradient = 0.00424837
Updating nut for patch bottomWall
tau_w converged after 0 iterations.
tau_w converged after 0 iterations.
tau_w converged after 0 iterations.
tau_w converged after 0 iterations.
tau_w converged after 0 iterations.
tau_w converged after 0 iterations.
tau_w converged after 0 iterations.
tau_w converged after 0 iterations.
tau_w converged after 0 iterations.
Average uTau/uTauBench/diff 0.0630655 0.0641877 1.74829, patch bottomWall
tau_w converged after 0 iterations.
tau_w converged after 0 iterations.
tau_w converged after 0 iterations.
tau_w converged after 0 iterations.
tau_w converged after 0 iterations.
tau_w converged after 0 iterations.
tau_w converged after 0 iterations.
tau_w converged after 0 iterations.
tau_w converged after 0 iterations.
GAMG:  Solving for p, Initial residual = 0.394808, Final residual = 6.7409e-07, No Iterations 9
time step continuity errors : sum local = 3.86685e-19, global = 5.55057e-20, cumulative = -4.5427e-19
Pressure gradient source: uncorrected Ubar = 1, pressure gradient = 0.00424939
Updating nut for patch bottomWall
tau_w converged after 0 iterations.
tau_w converged after 0 iterations.
tau_w converged after 0 iterations.
tau_w converged after 0 iterations.
tau_w converged after 0 iterations.
tau_w converged after 0 iterations.
tau_w converged after 0 iterations.
tau_w converged after 0 iterations.
tau_w converged after 0 iterations.
Average uTau/uTauBench/diff 0.0630704 0.0641962 1.75357, patch bottomWall
tau_w converged after 0 iterations.
tau_w converged after 0 iterations.
tau_w converged after 0 iterations.
tau_w converged after 0 iterations.
tau_w converged after 0 iterations.
tau_w converged after 0 iterations.
tau_w converged after 0 iterations.
tau_w converged after 0 iterations.
tau_w converged after 0 iterations.
--> FOAM Warning : 
    From function rmDir(const fileName&)
    in file POSIX.C at line 1040
    failed to remove directory "/home/salre674/Desktop/group_codes/libwallmodelledles/tests/testCases/channel_flow/0.05"
ExecutionTime = 0.04 s  ClockTime = 0 s

Courant Number mean: 0.00333312 max: 0.00333397
Time = 0.07

PIMPLE: iteration 1
DILUPBiCG:  Solving for Ux, Initial residual = 0.0768585, Final residual = 5.69447e-05, No Iterations 1
DILUPBiCG:  Solving for Uy, Initial residual = 0.0499421, Final residual = 3.43083e-05, No Iterations 1
DILUPBiCG:  Solving for Uz, Initial residual = 0.0540748, Final residual = 3.86583e-05, No Iterations 1
Pressure gradient source: uncorrected Ubar = 1, pressure gradient = 0.00424736
ExecutionTime = 0.05 s  ClockTime = 0 s

Courant Number mean: 0.00333312 max: 0.00333383
Time = 0.06

PIMPLE: iteration 1
GAMG:  Solving for p, Initial residual = 0.999996, Final residual = 0.00194151, No Iterations 1
time step continuity errors : sum local = 7.93213e-16, global = -2.69511e-20, cumulative = -4.41331e-19
DILUPBiCG:  Solving for Ux, Initial residual = 0.0908447, Final residual = 6.73115e-05, No Iterations 1
Pressure gradient source: uncorrected Ubar = 1, pressure gradient = 0.00424736
DILUPBiCG:  Solving for Uy, Initial residual = 0.0539677, Final residual = 3.88996e-05, No Iterations 1
DILUPBiCG:  Solving for Uz, Initial residual = 0.0675719, Final residual = 5.6665e-05, No Iterations 1
Pressure gradient source: uncorrected Ubar = 1, pressure gradient = 0.00424837
GAMG:  Solving for p, Initial residual = 0.999996, Final residual = 0.00193651, No Iterations 1
time step continuity errors : sum local = 7.92796e-16, global = 2.25166e-20, cumulative = -4.31753e-19
GAMG:  Solving for p, Initial residual = 0.998967, Final residual = 0.00188375, No Iterations 1
Pressure gradient source: uncorrected Ubar = 1, pressure gradient = 0.00424837
time step continuity errors : sum local = 5.64718e-16, global = 2.20848e-20, cumulative = -4.19246e-19
Pressure gradient source: uncorrected Ubar = 1, pressure gradient = 0.00424736
GAMG:  Solving for p, Initial residual = 0.99901, Final residual = 0.00187693, No Iterations 1
time step continuity errors : sum local = 5.63042e-16, global = 1.24025e-20, cumulative = -4.19351e-19
Pressure gradient source: uncorrected Ubar = 1, pressure gradient = 0.00424837
GAMG:  Solving for p, Initial residual = 0.39674, Final residual = 6.29261e-07, No Iterations 9
time step continuity errors : sum local = 4.03629e-19, global = 1.10812e-20, cumulative = -4.08165e-19
Pressure gradient source: uncorrected Ubar = 1, pressure gradient = 0.00424736
GAMG:  Solving for p, Initial residual = 0.395739, Final residual = 6.53017e-07, No Iterations 9
Updating nut for patch bottomWall
time step continuity errors : sum local = 4.91336e-19, global = 4.97053e-21, cumulative = -4.1438e-19
tau_w converged after 0 iterations.
tau_w converged after 0 iterations.
tau_w converged after 0 iterations.
tau_w converged after 0 iterations.
tau_w converged after 0 iterations.
tau_w converged after 0 iterations.
tau_w converged after 0 iterations.
tau_w converged after 0 iterations.
tau_w converged after 0 iterations.
Average uTau/uTauBench/diff 0.0630606 0.0641792 1.74301, patch bottomWall
Pressure gradient source: uncorrected Ubar = 1, pressure gradient = 0.00424837
tau_w converged after 0 iterations.
tau_w converged after 0 iterations.
tau_w converged after 0 iterations.
tau_w converged after 0 iterations.
tau_w converged after 0 iterations.
tau_w converged after 0 iterations.
tau_w converged after 0 iterations.
tau_w converged after 0 iterations.
tau_w converged after 0 iterations.
Updating nut for patch bottomWall
tau_w converged after 0 iterations.
tau_w converged after 0 iterations.
tau_w converged after 0 iterations.
tau_w converged after 0 iterations.
tau_w converged after 0 iterations.
tau_w converged after 0 iterations.
tau_w converged after 0 iterations.
tau_w converged after 0 iterations.
tau_w converged after 0 iterations.
Average uTau/uTauBench/diff 0.0630655 0.0641877 1.74829, patch bottomWall
tau_w converged after 0 iterations.
tau_w converged after 0 iterations.
tau_w converged after 0 iterations.
tau_w converged after 0 iterations.
tau_w converged after 0 iterations.
tau_w converged after 0 iterations.
tau_w converged after 0 iterations.
tau_w converged after 0 iterations.
tau_w converged after 0 iterations.
ExecutionTime = 0.05 s  ClockTime = 0 s

Courant Number mean: 0.00333312 max: 0.00333411
Time = 0.08

PIMPLE: iteration 1
DILUPBiCG:  Solving for Ux, Initial residual = 0.0666019, Final residual = 4.93424e-05, No Iterations 1
DILUPBiCG:  Solving for Uy, Initial residual = 0.051218, Final residual = 2.92645e-05, No Iterations 1
DILUPBiCG:  Solving for Uz, Initial residual = 0.0495892, Final residual = 3.9227e-05, No Iterations 1
Pressure gradient source: uncorrected Ubar = 1, pressure gradient = 0.00424635
GAMG:  Solving for p, Initial residual = 0.999991, Final residual = 0.00194638, No Iterations 1
time step continuity errors : sum local = 7.93241e-16, global = 1.47108e-20, cumulative = -3.93454e-19
Pressure gradient source: uncorrected Ubar = 1, pressure gradient = 0.00424635
ExecutionTime = 0.06 s  ClockTime = 0 s

Courant Number mean: 0.00333312 max: 0.00333397
Time = 0.07

PIMPLE: iteration 1
GAMG:  Solving for p, Initial residual = 0.998914, Final residual = 0.00189041, No Iterations 1
DILUPBiCG:  Solving for Ux, Initial residual = 0.0768585, Final residual = 5.69447e-05, No Iterations 1
time step continuity errors : sum local = 5.66662e-16, global = -1.49998e-20, cumulative = -4.08454e-19
DILUPBiCG:  Solving for Uy, Initial residual = 0.0499421, Final residual = 3.43083e-05, No Iterations 1
Pressure gradient source: uncorrected Ubar = 1, pressure gradient = 0.00424635
DILUPBiCG:  Solving for Uz, Initial residual = 0.0540748, Final residual = 3.86583e-05, No Iterations 1
Pressure gradient source: uncorrected Ubar = 1, pressure gradient = 0.00424736
GAMG:  Solving for p, Initial residual = 0.999996, Final residual = 0.00194151, No Iterations 1
GAMG:  Solving for p, Initial residual = 0.397743, Final residual = 6.0962e-07, No Iterations 9
time step continuity errors : sum local = 7.93213e-16, global = -2.69511e-20, cumulative = -4.41331e-19
time step continuity errors : sum local = 4.96687e-19, global = -2.10875e-20, cumulative = -4.29542e-19
Pressure gradient source: uncorrected Ubar = 1, pressure gradient = 0.00424736
Pressure gradient source: uncorrected Ubar = 1, pressure gradient = 0.00424635
Updating nut for patch bottomWall
tau_w converged after 0 iterations.
tau_w converged after 0 iterations.
tau_w converged after 0 iterations.
tau_w converged after 0 iterations.
tau_w converged after 0 iterations.
tau_w converged after 0 iterations.
tau_w converged after 0 iterations.
tau_w converged after 0 iterations.
tau_w converged after 0 iterations.
Average uTau/uTauBench/diff 0.0630556 0.0641708 1.73773, patch bottomWall
tau_w converged after 0 iterations.
tau_w converged after 0 iterations.
tau_w converged after 0 iterations.
tau_w converged after 0 iterations.
tau_w converged after 0 iterations.
tau_w converged after 0 iterations.
tau_w converged after 0 iterations.
tau_w converged after 0 iterations.
tau_w converged after 0 iterations.
GAMG:  Solving for p, Initial residual = 0.998967, Final residual = 0.00188375, No Iterations 1
time step continuity errors : sum local = 5.64718e-16, global = 2.20848e-20, cumulative = -4.19246e-19
Pressure gradient source: uncorrected Ubar = 1, pressure gradient = 0.00424736
ExecutionTime = 0.05 s  ClockTime = 0 s

Courant Number mean: 0.00333312 max: 0.00333425
Time = 0.09

PIMPLE: iteration 1
GAMG:  Solving for p, Initial residual = 0.39674, Final residual = 6.29261e-07, No Iterations 9
time step continuity errors : sum local = 4.03629e-19, global = 1.10812e-20, cumulative = -4.08165e-19
Pressure gradient source: uncorrected Ubar = 1, pressure gradient = 0.00424736
DILUPBiCG:  Solving for Ux, Initial residual = 0.0587586, Final residual = 4.35288e-05, No Iterations 1
DILUPBiCG:  Solving for Uy, Initial residual = 0.0376755, Final residual = 2.65262e-05, No Iterations 1
DILUPBiCG:  Solving for Uz, Initial residual = 0.0396824, Final residual = 3.70925e-05, No Iterations 1
Pressure gradient source: uncorrected Ubar = 1, pressure gradient = 0.00424533
Updating nut for patch bottomWall
tau_w converged after 0 iterations.
tau_w converged after 0 iterations.
tau_w converged after 0 iterations.
tau_w converged after 0 iterations.
tau_w converged after 0 iterations.
tau_w converged after 0 iterations.
tau_w converged after 0 iterations.
tau_w converged after 0 iterations.
tau_w converged after 0 iterations.
Average uTau/uTauBench/diff 0.0630606 0.0641792 1.74301, patch bottomWall
tau_w converged after 0 iterations.
tau_w converged after 0 iterations.
tau_w converged after 0 iterations.
tau_w converged after 0 iterations.
tau_w converged after 0 iterations.
tau_w converged after 0 iterations.
tau_w converged after 0 iterations.
tau_w converged after 0 iterations.
tau_w converged after 0 iterations.
GAMG:  Solving for p, Initial residual = 0.999995, Final residual = 0.00195127, No Iterations 1
time step continuity errors : sum local = 7.9358e-16, global = -2.39786e-20, cumulative = -4.5352e-19
Pressure gradient source: uncorrected Ubar = 1, pressure gradient = 0.00424533
GAMG:  Solving for p, Initial residual = 0.998872, Final residual = 0.00189737, No Iterations 1
time step continuity errors : sum local = 5.6853e-16, global = -1.41477e-20, cumulative = -4.67668e-19
Pressure gradient source: uncorrected Ubar = 1, pressure gradient = 0.00424533
ExecutionTime = 0.06 s  ClockTime = 0 s

Courant Number mean: 0.00333312 max: 0.00333411
Time = 0.08

PIMPLE: iteration 1
DILUPBiCG:  Solving for Ux, Initial residual = 0.0666019, Final residual = 4.93424e-05, No Iterations 1
DILUPBiCG:  Solving for Uy, Initial residual = 0.051218, Final residual = 2.92645e-05, No Iterations 1
DILUPBiCG:  Solving for Uz, Initial residual = 0.0495892, Final residual = 3.9227e-05, No Iterations 1
Pressure gradient source: uncorrected Ubar = 1, pressure gradient = 0.00424635
GAMG:  Solving for p, Initial residual = 0.399217, Final residual = 5.88034e-07, No Iterations 9
time step continuity errors : sum local = 3.74946e-19, global = -1.80316e-21, cumulative = -4.69471e-19
Pressure gradient source: uncorrected Ubar = 1, pressure gradient = 0.00424533
Updating nut for patch bottomWall
tau_w converged after 0 iterations.
tau_w converged after 0 iterations.
tau_w converged after 0 iterations.
tau_w converged after 0 iterations.
tau_w converged after 0 iterations.
tau_w converged after 0 iterations.
tau_w converged after 0 iterations.
tau_w converged after 0 iterations.
tau_w converged after 0 iterations.
Average uTau/uTauBench/diff 0.0630507 0.0641623 1.73246, patch bottomWall
tau_w converged after 0 iterations.
tau_w converged after 0 iterations.
tau_w converged after 0 iterations.
tau_w converged after 0 iterations.
tau_w converged after 0 iterations.
tau_w converged after 0 iterations.
tau_w converged after 0 iterations.
tau_w converged after 0 iterations.
tau_w converged after 0 iterations.
GAMG:  Solving for p, Initial residual = 0.999991, Final residual = 0.00194638, No Iterations 1
time step continuity errors : sum local = 7.93241e-16, global = 1.47108e-20, cumulative = -3.93454e-19
Pressure gradient source: uncorrected Ubar = 1, pressure gradient = 0.00424635
GAMG:  Solving for p, Initial residual = 0.998914, Final residual = 0.00189041, No Iterations 1
time step continuity errors : sum local = 5.66662e-16, global = -1.49998e-20, cumulative = -4.08454e-19
Pressure gradient source: uncorrected Ubar = 1, pressure gradient = 0.00424635
ExecutionTime = 0.05 s  ClockTime = 0 s

Courant Number mean: 0.00333312 max: 0.0033344
Time = 0.1

PIMPLE: iteration 1
GAMG:  Solving for p, Initial residual = 0.397743, Final residual = 6.0962e-07, No Iterations 9
time step continuity errors : sum local = 4.96687e-19, global = -2.10875e-20, cumulative = -4.29542e-19
Pressure gradient source: uncorrected Ubar = 1, pressure gradient = 0.00424635
Updating nut for patch bottomWall
tau_w converged after 0 iterations.
tau_w converged after 0 iterations.
DILUPBiCG:  Solving for Ux, Initial residual = 0.0525665, Final residual = 3.89392e-05, No Iterations 1
tau_w converged after 0 iterations.
tau_w converged after 0 iterations.
tau_w converged after 0 iterations.
tau_w converged after 0 iterations.
tau_w converged after 0 iterations.
tau_w converged after 0 iterations.
tau_w converged after 0 iterations.
DILUPBiCG:  Solving for Uy, Initial residual = 0.0430312, Final residual = 3.11539e-05, No Iterations 1
Average uTau/uTauBench/diff 0.0630556 0.0641708 1.73773, patch bottomWall
tau_w converged after 0 iterations.
tau_w converged after 0 iterations.
tau_w converged after 0 iterations.
tau_w converged after 0 iterations.
tau_w converged after 0 iterations.
tau_w converged after 0 iterations.
tau_w converged after 0 iterations.
tau_w converged after 0 iterations.
tau_w converged after 0 iterations.
DILUPBiCG:  Solving for Uz, Initial residual = 0.0512633, Final residual = 3.00106e-05, No Iterations 1
Pressure gradient source: uncorrected Ubar = 1, pressure gradient = 0.00424432
GAMG:  Solving for p, Initial residual = 0.999995, Final residual = 0.00195626, No Iterations 1
time step continuity errors : sum local = 7.94143e-16, global = 3.14936e-20, cumulative = -4.37978e-19
Pressure gradient source: uncorrected Ubar = 1, pressure gradient = 0.00424432
GAMG:  Solving for p, Initial residual = 0.998828, Final residual = 0.00190455, No Iterations 1
time step continuity errors : sum local = 5.70362e-16, global = 3.56469e-20, cumulative = -4.02331e-19
Pressure gradient source: uncorrected Ubar = 1, pressure gradient = 0.00424432
ExecutionTime = 0.07 s  ClockTime = 0 s

Courant Number mean: 0.00333312 max: 0.00333425
Time = 0.09

PIMPLE: iteration 1
DILUPBiCG:  Solving for Ux, Initial residual = 0.0587586, Final residual = 4.35288e-05, No Iterations 1
DILUPBiCG:  Solving for Uy, Initial residual = 0.0376755, Final residual = 2.65262e-05, No Iterations 1
DILUPBiCG:  Solving for Uz, Initial residual = 0.0396824, Final residual = 3.70925e-05, No Iterations 1
GAMG:  Solving for p, Initial residual = 0.400597, Final residual = 5.64708e-07, No Iterations 9
Pressure gradient source: uncorrected Ubar = 1, pressure gradient = 0.00424533
time step continuity errors : sum local = 3.2607e-19, global = 1.85992e-20, cumulative = -3.83731e-19
Pressure gradient source: uncorrected Ubar = 1, pressure gradient = 0.00424432
Updating nut for patch bottomWall
tau_w converged after 0 iterations.
tau_w converged after 0 iterations.
tau_w converged after 0 iterations.
tau_w converged after 0 iterations.
tau_w converged after 0 iterations.
tau_w converged after 0 iterations.
tau_w converged after 0 iterations.
tau_w converged after 0 iterations.
tau_w converged after 0 iterations.
GAMG:  Solving for p, Initial residual = 0.999995, Final residual = 0.00195127, No Iterations 1
Average uTau/uTauBench/diff 0.0630458 0.0641538 1.72718, patch bottomWall
tau_w converged after 0 iterations.
tau_w converged after 0 iterations.
tau_w converged after 0 iterations.
tau_w converged after 0 iterations.
tau_w converged after 0 iterations.
tau_w converged after 0 iterations.
tau_w converged after 0 iterations.
tau_w converged after 0 iterations.
tau_w converged after 0 iterations.
time step continuity errors : sum local = 7.9358e-16, global = -2.39786e-20, cumulative = -4.5352e-19
Pressure gradient source: uncorrected Ubar = 1, pressure gradient = 0.00424533
GAMG:  Solving for p, Initial residual = 0.998872, Final residual = 0.00189737, No Iterations 1
time step continuity errors : sum local = 5.6853e-16, global = -1.41477e-20, cumulative = -4.67668e-19
Pressure gradient source: uncorrected Ubar = 1, pressure gradient = 0.00424533
ExecutionTime = 0.06 s  ClockTime = 0 s

GAMG:  Solving for p, Initial residual = 0.399217, Final residual = 5.88034e-07, No Iterations 9
Courant Number mean: 0.00333312 max: 0.00333454
Time = 0.11

time step continuity errors : sum local = 3.74946e-19, global = -1.80316e-21, cumulative = -4.69471e-19
PIMPLE: iteration 1
Pressure gradient source: uncorrected Ubar = 1, pressure gradient = 0.00424533
Updating nut for patch bottomWall
tau_w converged after 0 iterations.
tau_w converged after 0 iterations.
tau_w converged after 0 iterations.
tau_w converged after 0 iterations.
tau_w converged after 0 iterations.
tau_w converged after 0 iterations.
tau_w converged after 0 iterations.
tau_w converged after 0 iterations.
tau_w converged after 0 iterations.
Average uTau/uTauBench/diff 0.0630507 0.0641623 1.73246, patch bottomWall
tau_w converged after 0 iterations.
tau_w converged after 0 iterations.
tau_w converged after 0 iterations.
tau_w converged after 0 iterations.
tau_w converged after 0 iterations.
tau_w converged after 0 iterations.
tau_w converged after 0 iterations.
tau_w converged after 0 iterations.
tau_w converged after 0 iterations.
DILUPBiCG:  Solving for Ux, Initial residual = 0.0475538, Final residual = 3.52237e-05, No Iterations 1
DILUPBiCG:  Solving for Uy, Initial residual = 0.0340464, Final residual = 2.29186e-05, No Iterations 1
DILUPBiCG:  Solving for Uz, Initial residual = 0.0570632, Final residual = 4.42638e-05, No Iterations 1
Pressure gradient source: uncorrected Ubar = 1, pressure gradient = 0.00424331
GAMG:  Solving for p, Initial residual = 0.999996, Final residual = 0.00196141, No Iterations 1
time step continuity errors : sum local = 7.94542e-16, global = 7.99875e-20, cumulative = -3.03744e-19
Pressure gradient source: uncorrected Ubar = 1, pressure gradient = 0.00424331
ExecutionTime = 0.07 s  ClockTime = 0 s

Courant Number mean: 0.00333312 max: 0.0033344
Time = 0.1

PIMPLE: iteration 1
GAMG:  Solving for p, Initial residual = 0.99878, Final residual = 0.00191239, No Iterations 1
time step continuity errors : sum local = 5.7236e-16, global = 5.63536e-20, cumulative = -2.4739e-19
DILUPBiCG:  Solving for Ux, Initial residual = 0.0525665, Final residual = 3.89392e-05, No Iterations 1
DILUPBiCG:  Solving for Uy, Initial residual = 0.0430312, Final residual = 3.11539e-05, No Iterations 1
Pressure gradient source: uncorrected Ubar = 1, pressure gradient = 0.00424331
DILUPBiCG:  Solving for Uz, Initial residual = 0.0512633, Final residual = 3.00106e-05, No Iterations 1
Pressure gradient source: uncorrected Ubar = 1, pressure gradient = 0.00424432
GAMG:  Solving for p, Initial residual = 0.999995, Final residual = 0.00195626, No Iterations 1
time step continuity errors : sum local = 7.94143e-16, global = 3.14936e-20, cumulative = -4.37978e-19
Pressure gradient source: uncorrected Ubar = 1, pressure gradient = 0.00424432
GAMG:  Solving for p, Initial residual = 0.401677, Final residual = 5.41456e-07, No Iterations 9
time step continuity errors : sum local = 3.20586e-19, global = 3.2016e-20, cumulative = -2.15374e-19
Pressure gradient source: uncorrected Ubar = 1, pressure gradient = 0.00424331
GAMG:  Solving for p, Initial residual = 0.998828, Final residual = 0.00190455, No Iterations 1
time step continuity errors : sum local = 5.70362e-16, global = 3.56469e-20, cumulative = -4.02331e-19
Updating nut for patch bottomWall
tau_w converged after 0 iterations.
tau_w converged after 0 iterations.
tau_w converged after 0 iterations.
tau_w converged after 0 iterations.
tau_w converged after 0 iterations.
tau_w converged after 0 iterations.
tau_w converged after 0 iterations.
tau_w converged after 0 iterations.
tau_w converged after 0 iterations.
Pressure gradient source: uncorrected Ubar = 1, pressure gradient = 0.00424432
Average uTau/uTauBench/diff 0.0630408 0.0641454 1.7219, patch bottomWall
tau_w converged after 0 iterations.
tau_w converged after 0 iterations.
tau_w converged after 0 iterations.
tau_w converged after 0 iterations.
tau_w converged after 0 iterations.
tau_w converged after 0 iterations.
tau_w converged after 0 iterations.
tau_w converged after 0 iterations.
tau_w converged after 0 iterations.
GAMG:  Solving for p, Initial residual = 0.400597, Final residual = 5.64708e-07, No Iterations 9
time step continuity errors : sum local = 3.2607e-19, global = 1.85992e-20, cumulative = -3.83731e-19
Pressure gradient source: uncorrected Ubar = 1, pressure gradient = 0.00424432
Updating nut for patch bottomWall
tau_w converged after 0 iterations.
tau_w converged after 0 iterations.
tau_w converged after 0 iterations.
tau_w converged after 0 iterations.
tau_w converged after 0 iterations.
tau_w converged after 0 iterations.
tau_w converged after 0 iterations.
tau_w converged after 0 iterations.
tau_w converged after 0 iterations.
Average uTau/uTauBench/diff 0.0630458 0.0641538 1.72718, patch bottomWall
tau_w converged after 0 iterations.
tau_w converged after 0 iterations.
tau_w converged after 0 iterations.
tau_w converged after 0 iterations.
tau_w converged after 0 iterations.
tau_w converged after 0 iterations.
tau_w converged after 0 iterations.
tau_w converged after 0 iterations.
tau_w converged after 0 iterations.
ExecutionTime = 0.07 s  ClockTime = 0 s

Courant Number mean: 0.00333312 max: 0.00333468
Time = 0.12

PIMPLE: iteration 1
DILUPBiCG:  Solving for Ux, Initial residual = 0.0434129, Final residual = 3.21544e-05, No Iterations 1
DILUPBiCG:  Solving for Uy, Initial residual = 0.0244001, Final residual = 1.65359e-05, No Iterations 1
DILUPBiCG:  Solving for Uz, Initial residual = 0.0594321, Final residual = 3.28606e-05, No Iterations 1
Pressure gradient source: uncorrected Ubar = 1, pressure gradient = 0.0042423
GAMG:  Solving for p, Initial residual = 0.999994, Final residual = 0.00196639, No Iterations 1
time step continuity errors : sum local = 7.94763e-16, global = 4.20217e-20, cumulative = -1.73353e-19
Pressure gradient source: uncorrected Ubar = 1, pressure gradient = 0.0042423
ExecutionTime = 0.08 s  ClockTime = 0 s

Courant Number mean: 0.00333312 max: 0.00333454
Time = 0.11

PIMPLE: iteration 1
GAMG:  Solving for p, Initial residual = 0.998732, Final residual = 0.00192011, No Iterations 1
time step continuity errors : sum local = 5.74517e-16, global = 7.52017e-20, cumulative = -9.81509e-20
Pressure gradient source: uncorrected Ubar = 1, pressure gradient = 0.0042423
DILUPBiCG:  Solving for Ux, Initial residual = 0.0475538, Final residual = 3.52237e-05, No Iterations 1
DILUPBiCG:  Solving for Uy, Initial residual = 0.0340464, Final residual = 2.29186e-05, No Iterations 1
DILUPBiCG:  Solving for Uz, Initial residual = 0.0570632, Final residual = 4.42638e-05, No Iterations 1
Pressure gradient source: uncorrected Ubar = 1, pressure gradient = 0.00424331
GAMG:  Solving for p, Initial residual = 0.40276, Final residual = 5.2253e-07, No Iterations 9
time step continuity errors : sum local = 4.97252e-19, global = 1.02999e-19, cumulative = 4.84854e-21
Pressure gradient source: uncorrected Ubar = 1, pressure gradient = 0.0042423
Updating nut for patch bottomWall
tau_w converged after 1 iterations.
tau_w converged after 1 iterations.
tau_w converged after 1 iterations.
tau_w converged after 1 iterations.
tau_w converged after 1 iterations.
tau_w converged after 1 iterations.
tau_w converged after 1 iterations.
tau_w converged after 1 iterations.
tau_w converged after 1 iterations.
Average uTau/uTauBench/diff 0.0630033 0.0641369 1.76747, patch bottomWall
tau_w converged after 1 iterations.
tau_w converged after 1 iterations.
tau_w converged after 1 iterations.
tau_w converged after 1 iterations.
tau_w converged after 1 iterations.
tau_w converged after 1 iterations.
tau_w converged after 1 iterations.
tau_w converged after 1 iterations.
tau_w converged after 1 iterations.
GAMG:  Solving for p, Initial residual = 0.999996, Final residual = 0.00196141, No Iterations 1
time step continuity errors : sum local = 7.94542e-16, global = 7.99875e-20, cumulative = -3.03744e-19
Pressure gradient source: uncorrected Ubar = 1, pressure gradient = 0.00424331
GAMG:  Solving for p, Initial residual = 0.99878, Final residual = 0.00191239, No Iterations 1
time step continuity errors : sum local = 5.7236e-16, global = 5.63536e-20, cumulative = -2.4739e-19
Pressure gradient source: uncorrected Ubar = 1, pressure gradient = 0.00424331
ExecutionTime = 0.07 s  ClockTime = 0 s

Courant Number mean: 0.00333312 max: 0.00333482
Time = 0.13

PIMPLE: iteration 1
DILUPBiCG:  Solving for Ux, Initial residual = 0.0399267, Final residual = 2.95705e-05, No Iterations 1
DILUPBiCG:  Solving for Uy, Initial residual = 0.0279957, Final residual = 1.85069e-05, No Iterations 1
DILUPBiCG:  Solving for Uz, Initial residual = 0.0707465, Final residual = 4.81752e-05, No Iterations 1
Pressure gradient source: uncorrected Ubar = 1, pressure gradient = 0.00423923
GAMG:  Solving for p, Initial residual = 0.401677, Final residual = 5.41456e-07, No Iterations 9
time step continuity errors : sum local = 3.20586e-19, global = 3.2016e-20, cumulative = -2.15374e-19
Pressure gradient source: uncorrected Ubar = 1, pressure gradient = 0.00424331
GAMG:  Solving for p, Initial residual = 0.999997, Final residual = 0.00197991, No Iterations 1
Updating nut for patch bottomWall
time step continuity errors : sum local = 7.96706e-16, global = 1.19641e-19, cumulative = 1.24489e-19
tau_w converged after 0 iterations.
tau_w converged after 0 iterations.
tau_w converged after 0 iterations.
tau_w converged after 0 iterations.
tau_w converged after 0 iterations.
tau_w converged after 0 iterations.
tau_w converged after 0 iterations.
tau_w converged after 0 iterations.
tau_w converged after 0 iterations.
Pressure gradient source: uncorrected Ubar = 1, pressure gradient = 0.00423923
Average uTau/uTauBench/diff 0.0630408 0.0641454 1.7219, patch bottomWall
tau_w converged after 0 iterations.
tau_w converged after 0 iterations.
tau_w converged after 0 iterations.
tau_w converged after 0 iterations.
tau_w converged after 0 iterations.
tau_w converged after 0 iterations.
tau_w converged after 0 iterations.
tau_w converged after 0 iterations.
tau_w converged after 0 iterations.
GAMG:  Solving for p, Initial residual = 0.998638, Final residual = 0.00194089, No Iterations 1
time step continuity errors : sum local = 5.80106e-16, global = 6.57443e-20, cumulative = 1.90234e-19
Pressure gradient source: uncorrected Ubar = 1, pressure gradient = 0.00423923
ExecutionTime = 0.08 s  ClockTime = 0 s

GAMG:  Solving for p, Initial residual = 0.405631, Final residual = 4.7349e-07, No Iterations 9
Courant Number mean: 0.00333312 max: 0.00333468
time step continuity errors : sum local = 4.74445e-19, global = 1.05882e-19, cumulative = 2.96115e-19
Time = 0.12

PIMPLE: iteration 1
Pressure gradient source: uncorrected Ubar = 1, pressure gradient = 0.00423923
DILUPBiCG:  Solving for Ux, Initial residual = 0.0434129, Final residual = 3.21544e-05, No Iterations 1
DILUPBiCG:  Solving for Uy, Initial residual = 0.0244001, Final residual = 1.65359e-05, No Iterations 1
DILUPBiCG:  Solving for Uz, Initial residual = 0.0594321, Final residual = 3.28606e-05, No Iterations 1
Pressure gradient source: uncorrected Ubar = 1, pressure gradient = 0.0042423
Updating nut for patch bottomWall
tau_w converged after 0 iterations.
tau_w converged after 0 iterations.
tau_w converged after 0 iterations.
tau_w converged after 0 iterations.
tau_w converged after 0 iterations.
tau_w converged after 0 iterations.
tau_w converged after 0 iterations.
tau_w converged after 0 iterations.
tau_w converged after 0 iterations.
Average uTau/uTauBench/diff 0.0629984 0.0641284 1.76215, patch bottomWall
tau_w converged after 0 iterations.
tau_w converged after 0 iterations.
tau_w converged after 0 iterations.
tau_w converged after 0 iterations.
tau_w converged after 0 iterations.
tau_w converged after 0 iterations.
tau_w converged after 0 iterations.
tau_w converged after 0 iterations.
tau_w converged after 0 iterations.
GAMG:  Solving for p, Initial residual = 0.999994, Final residual = 0.00196639, No Iterations 1
time step continuity errors : sum local = 7.94763e-16, global = 4.20217e-20, cumulative = -1.73353e-19
Pressure gradient source: uncorrected Ubar = 1, pressure gradient = 0.0042423
GAMG:  Solving for p, Initial residual = 0.998732, Final residual = 0.00192011, No Iterations 1
time step continuity errors : sum local = 5.74517e-16, global = 7.52017e-20, cumulative = -9.81509e-20
Pressure gradient source: uncorrected Ubar = 1, pressure gradient = 0.0042423
ExecutionTime = 0.08 s  ClockTime = 0 s

Courant Number mean: 0.00333312 max: 0.00333496
Time = 0.14

PIMPLE: iteration 1
GAMG:  Solving for p, Initial residual = 0.40276, Final residual = 5.2253e-07, No Iterations 9
time step continuity errors : sum local = 4.97252e-19, global = 1.02999e-19, cumulative = 4.84854e-21
Pressure gradient source: uncorrected Ubar = 1, pressure gradient = 0.0042423
DILUPBiCG:  Solving for Ux, Initial residual = 0.036957, Final residual = 2.73692e-05, No Iterations 1
DILUPBiCG:  Solving for Uy, Initial residual = 0.0286972, Final residual = 1.78198e-05, No Iterations 1
Updating nut for patch bottomWall
tau_w converged after 1 iterations.
tau_w converged after 1 iterations.
tau_w converged after 1 iterations.
tau_w converged after 1 iterations.
tau_w converged after 1 iterations.
tau_w converged after 1 iterations.
tau_w converged after 1 iterations.
DILUPBiCG:  Solving for Uz, Initial residual = 0.0465332, Final residual = 4.4592e-05, No Iterations 1
tau_w converged after 1 iterations.
tau_w converged after 1 iterations.
Average uTau/uTauBench/diff 0.0630033 0.0641369 1.76747, patch bottomWall
tau_w converged after 1 iterations.
tau_w converged after 1 iterations.
tau_w converged after 1 iterations.
tau_w converged after 1 iterations.
tau_w converged after 1 iterations.
tau_w converged after 1 iterations.
tau_w converged after 1 iterations.
tau_w converged after 1 iterations.
tau_w converged after 1 iterations.
Pressure gradient source: uncorrected Ubar = 1, pressure gradient = 0.00423822
GAMG:  Solving for p, Initial residual = 0.999992, Final residual = 0.0019803, No Iterations 1
time step continuity errors : sum local = 7.96105e-16, global = 8.791e-20, cumulative = 3.84025e-19
Pressure gradient source: uncorrected Ubar = 1, pressure gradient = 0.00423822
GAMG:  Solving for p, Initial residual = 0.998629, Final residual = 0.00194144, No Iterations 1
time step continuity errors : sum local = 5.80048e-16, global = 1.11487e-19, cumulative = 4.95512e-19
Pressure gradient source: uncorrected Ubar = 1, pressure gradient = 0.00423822
ExecutionTime = 0.08 s  ClockTime = 0 s

Courant Number mean: 0.00333312 max: 0.00333482
Time = 0.13

PIMPLE: iteration 1
DILUPBiCG:  Solving for Ux, Initial residual = 0.0399267, Final residual = 2.95705e-05, No Iterations 1
DILUPBiCG:  Solving for Uy, Initial residual = 0.0279957, Final residual = 1.85069e-05, No Iterations 1
DILUPBiCG:  Solving for Uz, Initial residual = 0.0707465, Final residual = 4.81752e-05, No Iterations 1
Pressure gradient source: uncorrected Ubar = 1, pressure gradient = 0.00423923
GAMG:  Solving for p, Initial residual = 0.405584, Final residual = 4.74911e-07, No Iterations 9
time step continuity errors : sum local = 5.22235e-19, global = 1.61992e-19, cumulative = 6.57504e-19
Pressure gradient source: uncorrected Ubar = 1, pressure gradient = 0.00423822
Updating nut for patch bottomWall
tau_w converged after 0 iterations.
tau_w converged after 0 iterations.
GAMG:  Solving for p, Initial residual = 0.999997, Final residual = 0.00197991, No Iterations 1
tau_w converged after 0 iterations.
tau_w converged after 0 iterations.
tau_w converged after 0 iterations.
tau_w converged after 0 iterations.
tau_w converged after 0 iterations.
tau_w converged after 0 iterations.
tau_w converged after 0 iterations.
Average uTau/uTauBench/diff 0.0629934 0.06412 1.75688, patch bottomWall
tau_w converged after 0 iterations.
tau_w converged after 0 iterations.
tau_w converged after 0 iterations.
tau_w converged after 0 iterations.
tau_w converged after 0 iterations.
tau_w converged after 0 iterations.
tau_w converged after 0 iterations.
tau_w converged after 0 iterations.
tau_w converged after 0 iterations.
time step continuity errors : sum local = 7.96706e-16, global = 1.19641e-19, cumulative = 1.24489e-19
Pressure gradient source: uncorrected Ubar = 1, pressure gradient = 0.00423923
GAMG:  Solving for p, Initial residual = 0.998638, Final residual = 0.00194089, No Iterations 1
time step continuity errors : sum local = 5.80106e-16, global = 6.57443e-20, cumulative = 1.90234e-19
Pressure gradient source: uncorrected Ubar = 1, pressure gradient = 0.00423923
GAMG:  Solving for p, Initial residual = 0.405631, Final residual = 4.7349e-07, No Iterations 9
time step continuity errors : sum local = 4.74445e-19, global = 1.05882e-19, cumulative = 2.96115e-19
Pressure gradient source: uncorrected Ubar = 1, pressure gradient = 0.00423923
ExecutionTime = 0.08 s  ClockTime = 0 s

Updating nut for patch bottomWall
tau_w converged after 0 iterations.
tau_w converged after 0 iterations.
tau_w converged after 0 iterations.
tau_w converged after 0 iterations.
tau_w converged after 0 iterations.
tau_w converged after 0 iterations.
tau_w converged after 0 iterations.
tau_w converged after 0 iterations.
tau_w converged after 0 iterations.
Average uTau/uTauBench/diff 0.0629984 0.0641284 1.76215, patch bottomWall
tau_w converged after 0 iterations.
tau_w converged after 0 iterations.
tau_w converged after 0 iterations.
tau_w converged after 0 iterations.
tau_w converged after 0 iterations.
tau_w converged after 0 iterations.
tau_w converged after 0 iterations.
Courant Number mean: 0.00333312 max: 0.0033351
tau_w converged after 0 iterations.
tau_w converged after 0 iterations.
Time = 0.15

PIMPLE: iteration 1
DILUPBiCG:  Solving for Ux, Initial residual = 0.0344033, Final residual = 2.54764e-05, No Iterations 1
DILUPBiCG:  Solving for Uy, Initial residual = 0.0251693, Final residual = 1.94623e-05, No Iterations 1
DILUPBiCG:  Solving for Uz, Initial residual = 0.0394453, Final residual = 2.86141e-05, No Iterations 1
Pressure gradient source: uncorrected Ubar = 1, pressure gradient = 0.00423721
GAMG:  Solving for p, Initial residual = 0.999996, Final residual = 0.0019865, No Iterations 1
time step continuity errors : sum local = 7.96921e-16, global = 1.15236e-19, cumulative = 7.7274e-19
Pressure gradient source: uncorrected Ubar = 1, pressure gradient = 0.00423721
ExecutionTime = 0.1 s  ClockTime = 0 s

Courant Number mean: 0.00333312 max: 0.00333496
Time = 0.14

PIMPLE: iteration 1
GAMG:  Solving for p, Initial residual = 0.998587, Final residual = 0.00194977, No Iterations 1
DILUPBiCG:  Solving for Ux, Initial residual = 0.036957, Final residual = 2.73692e-05, No Iterations 1
time step continuity errors : sum local = 5.82176e-16, global = 1.69517e-19, cumulative = 9.42257e-19
DILUPBiCG:  Solving for Uy, Initial residual = 0.0286972, Final residual = 1.78198e-05, No Iterations 1
Pressure gradient source: uncorrected Ubar = 1, pressure gradient = 0.00423721
DILUPBiCG:  Solving for Uz, Initial residual = 0.0465332, Final residual = 4.4592e-05, No Iterations 1
Pressure gradient source: uncorrected Ubar = 1, pressure gradient = 0.00423822
GAMG:  Solving for p, Initial residual = 0.999992, Final residual = 0.0019803, No Iterations 1
time step continuity errors : sum local = 7.96105e-16, global = 8.791e-20, cumulative = 3.84025e-19
Pressure gradient source: uncorrected Ubar = 1, pressure gradient = 0.00423822
GAMG:  Solving for p, Initial residual = 0.406886, Final residual = 4.51887e-07, No Iterations 9
time step continuity errors : sum local = 5.0685e-19, global = 1.81658e-19, cumulative = 1.12392e-18
Pressure gradient source: uncorrected Ubar = 1, pressure gradient = 0.00423721
GAMG:  Solving for p, Initial residual = 0.998629, Final residual = 0.00194144, No Iterations 1
Updating nut for patch bottomWall
time step continuity errors : sum local = 5.80048e-16, global = 1.11487e-19, cumulative = 4.95512e-19
tau_w converged after 0 iterations.
tau_w converged after 0 iterations.
tau_w converged after 0 iterations.
Pressure gradient source: uncorrected Ubar = 1, pressure gradient = 0.00423822
tau_w converged after 0 iterations.
tau_w converged after 0 iterations.
tau_w converged after 0 iterations.
tau_w converged after 0 iterations.
tau_w converged after 0 iterations.
tau_w converged after 0 iterations.
Average uTau/uTauBench/diff 0.0629885 0.0641115 1.75161, patch bottomWall
tau_w converged after 0 iterations.
tau_w converged after 0 iterations.
tau_w converged after 0 iterations.
tau_w converged after 0 iterations.
tau_w converged after 0 iterations.
tau_w converged after 0 iterations.
tau_w converged after 0 iterations.
tau_w converged after 0 iterations.
tau_w converged after 0 iterations.
GAMG:  Solving for p, Initial residual = 0.405584, Final residual = 4.74911e-07, No Iterations 9
time step continuity errors : sum local = 5.22235e-19, global = 1.61992e-19, cumulative = 6.57504e-19
Pressure gradient source: uncorrected Ubar = 1, pressure gradient = 0.00423822
Updating nut for patch bottomWall
tau_w converged after 0 iterations.
tau_w converged after 0 iterations.
tau_w converged after 0 iterations.
tau_w converged after 0 iterations.
tau_w converged after 0 iterations.
tau_w converged after 0 iterations.
tau_w converged after 0 iterations.
tau_w converged after 0 iterations.
tau_w converged after 0 iterations.
Average uTau/uTauBench/diff 0.0629934 0.06412 1.75688, patch bottomWall
tau_w converged after 0 iterations.
tau_w converged after 0 iterations.
tau_w converged after 0 iterations.
tau_w converged after 0 iterations.
tau_w converged after 0 iterations.
tau_w converged after 0 iterations.
tau_w converged after 0 iterations.
tau_w converged after 0 iterations.
tau_w converged after 0 iterations.
--> FOAM Warning : 
    From function rmDir(const fileName&)
    in file POSIX.C at line 1040
    failed to remove directory "/home/salre674/Desktop/group_codes/libwallmodelledles/tests/testCases/channel_flow/0.14"
ExecutionTime = 0.09 s  ClockTime = 0 s

Courant Number mean: 0.00333312 max: 0.00333524
Time = 0.16

PIMPLE: iteration 1
DILUPBiCG:  Solving for Ux, Initial residual = 0.0321799, Final residual = 2.38284e-05, No Iterations 1
DILUPBiCG:  Solving for Uy, Initial residual = 0.0244946, Final residual = 1.64227e-05, No Iterations 1
DILUPBiCG:  Solving for Uz, Initial residual = 0.0506261, Final residual = 4.16079e-05, No Iterations 1
Pressure gradient source: uncorrected Ubar = 1, pressure gradient = 0.0042362
ExecutionTime = 0.1 s  ClockTime = 0 s

Courant Number mean: 0.00333312 max: 0.0033351
Time = 0.15

PIMPLE: iteration 1
GAMG:  Solving for p, Initial residual = 0.999996, Final residual = 0.00199341, No Iterations 1
time step continuity errors : sum local = 7.9775e-16, global = 1.08819e-19, cumulative = 1.23273e-18
Pressure gradient source: uncorrected Ubar = 1, pressure gradient = 0.0042362
DILUPBiCG:  Solving for Ux, Initial residual = 0.0344033, Final residual = 2.54764e-05, No Iterations 1
DILUPBiCG:  Solving for Uy, Initial residual = 0.0251693, Final residual = 1.94623e-05, No Iterations 1
DILUPBiCG:  Solving for Uz, Initial residual = 0.0394453, Final residual = 2.86141e-05, No Iterations 1
Pressure gradient source: uncorrected Ubar = 1, pressure gradient = 0.00423721
GAMG:  Solving for p, Initial residual = 0.998538, Final residual = 0.00195754, No Iterations 1
time step continuity errors : sum local = 5.84274e-16, global = 1.35564e-19, cumulative = 1.3683e-18
Pressure gradient source: uncorrected Ubar = 1, pressure gradient = 0.0042362
GAMG:  Solving for p, Initial residual = 0.999996, Final residual = 0.0019865, No Iterations 1
time step continuity errors : sum local = 7.96921e-16, global = 1.15236e-19, cumulative = 7.7274e-19
Pressure gradient source: uncorrected Ubar = 1, pressure gradient = 0.00423721
GAMG:  Solving for p, Initial residual = 0.998587, Final residual = 0.00194977, No Iterations 1
GAMG:  Solving for p, Initial residual = 0.408191, Final residual = 4.30481e-07, No Iterations 9
time step continuity errors : sum local = 4.67915e-19, global = 1.35498e-19, cumulative = 1.5038e-18
time step continuity errors : sum local = 5.82176e-16, global = 1.69517e-19, cumulative = 9.42257e-19
Pressure gradient source: uncorrected Ubar = 1, pressure gradient = 0.00423721
Pressure gradient source: uncorrected Ubar = 1, pressure gradient = 0.0042362
Updating nut for patch bottomWall
tau_w converged after 0 iterations.
tau_w converged after 0 iterations.
tau_w converged after 0 iterations.
tau_w converged after 0 iterations.
tau_w converged after 0 iterations.
tau_w converged after 0 iterations.
tau_w converged after 0 iterations.
tau_w converged after 0 iterations.
tau_w converged after 0 iterations.
Average uTau/uTauBench/diff 0.0629836 0.0641031 1.74634, patch bottomWall
tau_w converged after 0 iterations.
tau_w converged after 0 iterations.
tau_w converged after 0 iterations.
tau_w converged after 0 iterations.
tau_w converged after 0 iterations.
tau_w converged after 0 iterations.
tau_w converged after 0 iterations.
tau_w converged after 0 iterations.
tau_w converged after 0 iterations.
GAMG:  Solving for p, Initial residual = 0.406886, Final residual = 4.51887e-07, No Iterations 9
time step continuity errors : sum local = 5.0685e-19, global = 1.81658e-19, cumulative = 1.12392e-18
Pressure gradient source: uncorrected Ubar = 1, pressure gradient = 0.00423721
Updating nut for patch bottomWall
tau_w converged after 0 iterations.
tau_w converged after 0 iterations.
tau_w converged after 0 iterations.
tau_w converged after 0 iterations.
tau_w converged after 0 iterations.
tau_w converged after 0 iterations.
tau_w converged after 0 iterations.
tau_w converged after 0 iterations.
tau_w converged after 0 iterations.
Average uTau/uTauBench/diff 0.0629885 0.0641115 1.75161, patch bottomWall
tau_w converged after 0 iterations.
tau_w converged after 0 iterations.
tau_w converged after 0 iterations.
tau_w converged after 0 iterations.
tau_w converged after 0 iterations.
tau_w converged after 0 iterations.
tau_w converged after 0 iterations.
tau_w converged after 0 iterations.
tau_w converged after 0 iterations.
ExecutionTime = 0.09 s  ClockTime = 0 s

Courant Number mean: 0.00333312 max: 0.00333539
Time = 0.17

PIMPLE: iteration 1
DILUPBiCG:  Solving for Ux, Initial residual = 0.0302261, Final residual = 2.23802e-05, No Iterations 1
DILUPBiCG:  Solving for Uy, Initial residual = 0.0201893, Final residual = 1.53239e-05, No Iterations 1
DILUPBiCG:  Solving for Uz, Initial residual = 0.0367555, Final residual = 1.44738e-05, No Iterations 1
Pressure gradient source: uncorrected Ubar = 1, pressure gradient = 0.00423519
ExecutionTime = 0.11 s  ClockTime = 0 s

Courant Number mean: 0.00333312 max: 0.00333524
Time = 0.16

GAMG:  Solving for p, Initial residual = 0.999997, Final residual = 0.00200052, No Iterations 1
PIMPLE: iteration 1
time step continuity errors : sum local = 7.98738e-16, global = 1.39788e-19, cumulative = 1.64358e-18
Pressure gradient source: uncorrected Ubar = 1, pressure gradient = 0.00423519
DILUPBiCG:  Solving for Ux, Initial residual = 0.0321799, Final residual = 2.38284e-05, No Iterations 1
DILUPBiCG:  Solving for Uy, Initial residual = 0.0244946, Final residual = 1.64227e-05, No Iterations 1
DILUPBiCG:  Solving for Uz, Initial residual = 0.0506261, Final residual = 4.16079e-05, No Iterations 1
Pressure gradient source: uncorrected Ubar = 1, pressure gradient = 0.0042362
GAMG:  Solving for p, Initial residual = 0.998493, Final residual = 0.00196539, No Iterations 1
time step continuity errors : sum local = 5.86261e-16, global = 1.14457e-19, cumulative = 1.75804e-18
Pressure gradient source: uncorrected Ubar = 1, pressure gradient = 0.00423519
GAMG:  Solving for p, Initial residual = 0.999996, Final residual = 0.00199341, No Iterations 1
time step continuity errors : sum local = 7.9775e-16, global = 1.08819e-19, cumulative = 1.23273e-18
Pressure gradient source: uncorrected Ubar = 1, pressure gradient = 0.0042362
GAMG:  Solving for p, Initial residual = 0.409293, Final residual = 4.07367e-07, No Iterations 9
time step continuity errors : sum local = 4.51616e-19, global = 1.38138e-19, cumulative = 1.89618e-18
Pressure gradient source: uncorrected Ubar = 1, pressure gradient = 0.00423519
GAMG:  Solving for p, Initial residual = 0.998538, Final residual = 0.00195754, No Iterations 1
Updating nut for patch bottomWall
tau_w converged after 0 iterations.
tau_w converged after 0 iterations.
tau_w converged after 0 iterations.
tau_w converged after 0 iterations.
tau_w converged after 0 iterations.
tau_w converged after 0 iterations.
tau_w converged after 0 iterations.
tau_w converged after 0 iterations.
tau_w converged after 0 iterations.
time step continuity errors : sum local = 5.84274e-16, global = 1.35564e-19, cumulative = 1.3683e-18
Average uTau/uTauBench/diff 0.0629787 0.0640946 1.74107, patch bottomWall
tau_w converged after 0 iterations.
tau_w converged after 0 iterations.
tau_w converged after 0 iterations.
tau_w converged after 0 iterations.
tau_w converged after 0 iterations.
tau_w converged after 0 iterations.
tau_w converged after 0 iterations.
tau_w converged after 0 iterations.
tau_w converged after 0 iterations.
Pressure gradient source: uncorrected Ubar = 1, pressure gradient = 0.0042362
GAMG:  Solving for p, Initial residual = 0.408191, Final residual = 4.30481e-07, No Iterations 9
time step continuity errors : sum local = 4.67915e-19, global = 1.35498e-19, cumulative = 1.5038e-18
Pressure gradient source: uncorrected Ubar = 1, pressure gradient = 0.0042362
Updating nut for patch bottomWall
tau_w converged after 0 iterations.
tau_w converged after 0 iterations.
tau_w converged after 0 iterations.
tau_w converged after 0 iterations.
tau_w converged after 0 iterations.
tau_w converged after 0 iterations.
tau_w converged after 0 iterations.
tau_w converged after 0 iterations.
tau_w converged after 0 iterations.
Average uTau/uTauBench/diff 0.0629836 0.0641031 1.74634, patch bottomWall
tau_w converged after 0 iterations.
tau_w converged after 0 iterations.
tau_w converged after 0 iterations.
tau_w converged after 0 iterations.
tau_w converged after 0 iterations.
tau_w converged after 0 iterations.
tau_w converged after 0 iterations.
tau_w converged after 0 iterations.
tau_w converged after 0 iterations.
ExecutionTime = 0.11 s  ClockTime = 0 s

Courant Number mean: 0.00333312 max: 0.00333553
Time = 0.18

PIMPLE: iteration 1
DILUPBiCG:  Solving for Ux, Initial residual = 0.0284956, Final residual = 2.10976e-05, No Iterations 1
DILUPBiCG:  Solving for Uy, Initial residual = 0.019774, Final residual = 1.37693e-05, No Iterations 1
DILUPBiCG:  Solving for Uz, Initial residual = 0.0411727, Final residual = 3.45368e-05, No Iterations 1
Pressure gradient source: uncorrected Ubar = 1, pressure gradient = 0.00423418
GAMG:  Solving for p, Initial residual = 0.999993, Final residual = 0.00200845, No Iterations 1
ExecutionTime = 0.12 s  ClockTime = 0 s

time step continuity errors : sum local = 7.99863e-16, global = 1.76898e-19, cumulative = 2.07308e-18
Courant Number mean: 0.00333312 max: 0.00333539
Time = 0.17

PIMPLE: iteration 1
Pressure gradient source: uncorrected Ubar = 1, pressure gradient = 0.00423418
DILUPBiCG:  Solving for Ux, Initial residual = 0.0302261, Final residual = 2.23802e-05, No Iterations 1
DILUPBiCG:  Solving for Uy, Initial residual = 0.0201893, Final residual = 1.53239e-05, No Iterations 1
DILUPBiCG:  Solving for Uz, Initial residual = 0.0367555, Final residual = 1.44738e-05, No Iterations 1
Pressure gradient source: uncorrected Ubar = 1, pressure gradient = 0.00423519
GAMG:  Solving for p, Initial residual = 0.998444, Final residual = 0.00197309, No Iterations 1
time step continuity errors : sum local = 5.88365e-16, global = 2.0188e-19, cumulative = 2.27496e-18
Pressure gradient source: uncorrected Ubar = 1, pressure gradient = 0.00423418
GAMG:  Solving for p, Initial residual = 0.999997, Final residual = 0.00200052, No Iterations 1
time step continuity errors : sum local = 7.98738e-16, global = 1.39788e-19, cumulative = 1.64358e-18
Pressure gradient source: uncorrected Ubar = 1, pressure gradient = 0.00423519
GAMG:  Solving for p, Initial residual = 0.410449, Final residual = 3.86335e-07, No Iterations 9
time step continuity errors : sum local = 5.01056e-19, global = 2.27439e-19, cumulative = 2.5024e-18
Pressure gradient source: uncorrected Ubar = 1, pressure gradient = 0.00423418
Updating nut for patch bottomWall
tau_w converged after 0 iterations.
tau_w converged after 0 iterations.
tau_w converged after 0 iterations.
tau_w converged after 0 iterations.
tau_w converged after 0 iterations.
tau_w converged after 0 iterations.
tau_w converged after 0 iterations.
[...]
tau_w converged after 1 iterations.
tau_w converged after 1 iterations.
tau_w converged after 1 iterations.
tau_w converged after 1 iterations.
tau_w converged after 1 iterations.
tau_w converged after 1 iterations.
Updating nut for patch bottomWall
tau_w converged after 0 iterations.
tau_w converged after 0 iterations.
tau_w converged after 0 iterations.
tau_w converged after 0 iterations.
tau_w converged after 0 iterations.
tau_w converged after 0 iterations.
tau_w converged after 0 iterations.
tau_w converged after 0 iterations.
tau_w converged after 0 iterations.
Average uTau/uTauBench/diff 0.0608674 0.0618426 1.57691, patch bottomWall
tau_w converged after 0 iterations.
tau_w converged after 0 iterations.
tau_w converged after 0 iterations.
tau_w converged after 0 iterations.
tau_w converged after 0 iterations.
tau_w converged after 0 iterations.
tau_w converged after 0 iterations.
tau_w converged after 0 iterations.
tau_w converged after 0 iterations.
ExecutionTime = 1.85 s  ClockTime = 2 s

Courant Number mean: 0.00333314 max: 0.0033737
Time = 2.99

PIMPLE: iteration 1
ExecutionTime = 1.87 s  ClockTime = 2 s

Courant Number mean: 0.00333314 max: 0.00337305
Time = 2.94

PIMPLE: iteration 1
DILUPBiCG:  Solving for Ux, Initial residual = 0.00159931, Final residual = 1.16368e-06, No Iterations 1
DILUPBiCG:  Solving for Ux, Initial residual = 0.00162778, Final residual = 1.18474e-06, No Iterations 1
DILUPBiCG:  Solving for Uy, Initial residual = 0.00201512, Final residual = 3.43983e-06, No Iterations 1
DILUPBiCG:  Solving for Uz, Initial residual = 0.00140892, Final residual = 1.48004e-06, No Iterations 1
Pressure gradient source: uncorrected Ubar = 1, pressure gradient = 0.00392274
DILUPBiCG:  Solving for Uy, Initial residual = 0.00221984, Final residual = 2.17342e-06, No Iterations 1
DILUPBiCG:  Solving for Uz, Initial residual = 0.00223781, Final residual = 1.5692e-06, No Iterations 1
GAMG:  Solving for p, Initial residual = 0.999985, Final residual = 0.00552694, No Iterations 1
Pressure gradient source: uncorrected Ubar = 1, pressure gradient = 0.00391638
time step continuity errors : sum local = 1.57905e-15, global = 2.08414e-18, cumulative = 9.2044e-16
Pressure gradient source: uncorrected Ubar = 1, pressure gradient = 0.00392274
GAMG:  Solving for p, Initial residual = 0.999984, Final residual = 0.00556835, No Iterations 1
time step continuity errors : sum local = 1.59689e-15, global = 2.17108e-18, cumulative = 9.52403e-16
Pressure gradient source: uncorrected Ubar = 1, pressure gradient = 0.00391638
GAMG:  Solving for p, Initial residual = 0.974149, Final residual = 0.00511721, No Iterations 1
time step continuity errors : sum local = 1.30543e-15, global = 2.11503e-18, cumulative = 9.22555e-16
Pressure gradient source: uncorrected Ubar = 1, pressure gradient = 0.00392274
GAMG:  Solving for p, Initial residual = 0.973538, Final residual = 0.00516, No Iterations 1
time step continuity errors : sum local = 1.31707e-15, global = 2.13339e-18, cumulative = 9.54536e-16
Pressure gradient source: uncorrected Ubar = 1, pressure gradient = 0.00391638
GAMG:  Solving for p, Initial residual = 0.755687, Final residual = 6.30123e-07, No Iterations 10
time step continuity errors : sum local = 2.5171e-18, global = 2.14367e-18, cumulative = 9.24699e-16
Pressure gradient source: uncorrected Ubar = 1, pressure gradient = 0.00392274
Updating nut for patch bottomWall
tau_w converged after 0 iterations.
tau_w converged after 0 iterations.
tau_w converged after 0 iterations.
tau_w converged after 0 iterations.
tau_w converged after 0 iterations.
tau_w converged after 0 iterations.
tau_w converged after 0 iterations.
tau_w converged after 0 iterations.
tau_w converged after 0 iterations.
Average uTau/uTauBench/diff 0.0608628 0.0618347 1.57183, patch bottomWall
tau_w converged after 0 iterations.
tau_w converged after 0 iterations.
tau_w converged after 0 iterations.
tau_w converged after 0 iterations.
tau_w converged after 0 iterations.
tau_w converged after 0 iterations.
tau_w converged after 0 iterations.
tau_w converged after 0 iterations.
tau_w converged after 0 iterations.
GAMG:  Solving for p, Initial residual = 0.735403, Final residual = 6.36961e-07, No Iterations 10
time step continuity errors : sum local = 2.44084e-18, global = 2.09676e-18, cumulative = 9.56633e-16
Pressure gradient source: uncorrected Ubar = 1, pressure gradient = 0.00391638
Updating nut for patch bottomWall
tau_w converged after 0 iterations.
tau_w converged after 0 iterations.
tau_w converged after 0 iterations.
tau_w converged after 0 iterations.
tau_w converged after 0 iterations.
tau_w converged after 0 iterations.
tau_w converged after 0 iterations.
tau_w converged after 0 iterations.
tau_w converged after 0 iterations.
Average uTau/uTauBench/diff 0.0608085 0.0617954 1.59697, patch bottomWall
tau_w converged after 0 iterations.
tau_w converged after 0 iterations.
tau_w converged after 0 iterations.
tau_w converged after 0 iterations.
tau_w converged after 0 iterations.
tau_w converged after 0 iterations.
tau_w converged after 0 iterations.
tau_w converged after 0 iterations.
tau_w converged after 0 iterations.
ExecutionTime = 1.87 s  ClockTime = 2 s

ExecutionTime = 1.85 s  ClockTime = 2 s

Courant Number mean: 0.00333314 max: 0.00337318
Time = 2.95

Courant Number mean: 0.00333314 max: 0.00337383
Time = 3

PIMPLE: iteration 1
PIMPLE: iteration 1
DILUPBiCG:  Solving for Ux, Initial residual = 0.00159343, Final residual = 1.15932e-06, No Iterations 1
DILUPBiCG:  Solving for Uy, Initial residual = 0.00242619, Final residual = 1.93295e-06, No Iterations 1
DILUPBiCG:  Solving for Uz, Initial residual = 0.00324101, Final residual = 2.58927e-06, No Iterations 1
Pressure gradient source: uncorrected Ubar = 1, pressure gradient = 0.00391548
DILUPBiCG:  Solving for Ux, Initial residual = 0.00162207, Final residual = 1.18052e-06, No Iterations 1
DILUPBiCG:  Solving for Uy, Initial residual = 0.0022832, Final residual = 2.16013e-06, No Iterations 1
DILUPBiCG:  Solving for Uz, Initial residual = 0.00369541, Final residual = 3.01377e-06, No Iterations 1
Pressure gradient source: uncorrected Ubar = 1, pressure gradient = 0.00392185
GAMG:  Solving for p, Initial residual = 0.999982, Final residual = 0.00556869, No Iterations 1
time step continuity errors : sum local = 1.59611e-15, global = 2.14857e-18, cumulative = 9.58782e-16
Pressure gradient source: uncorrected Ubar = 1, pressure gradient = 0.00391548
GAMG:  Solving for p, Initial residual = 0.999982, Final residual = 0.00553372, No Iterations 1
time step continuity errors : sum local = 1.58206e-15, global = 2.15885e-18, cumulative = 9.26858e-16
Pressure gradient source: uncorrected Ubar = 1, pressure gradient = 0.00392185
GAMG:  Solving for p, Initial residual = 0.973534, Final residual = 0.00516005, No Iterations 1
time step continuity errors : sum local = 1.31628e-15, global = 2.15899e-18, cumulative = 9.60941e-16
Pressure gradient source: uncorrected Ubar = 1, pressure gradient = 0.00391548
GAMG:  Solving for p, Initial residual = 0.974047, Final residual = 0.00512414, No Iterations 1
time step continuity errors : sum local = 1.30727e-15, global = 2.20226e-18, cumulative = 9.2906e-16
Pressure gradient source: uncorrected Ubar = 1, pressure gradient = 0.00392185
GAMG:  Solving for p, Initial residual = 0.735319, Final residual = 6.36543e-07, No Iterations 10
time step continuity errors : sum local = 2.54528e-18, global = 2.17447e-18, cumulative = 9.63115e-16
Pressure gradient source: uncorrected Ubar = 1, pressure gradient = 0.00391548
Updating nut for patch bottomWall
tau_w converged after 0 iterations.
tau_w converged after 0 iterations.
tau_w converged after 0 iterations.
tau_w converged after 0 iterations.
tau_w converged after 0 iterations.
tau_w converged after 0 iterations.
tau_w converged after 0 iterations.
tau_w converged after 0 iterations.
tau_w converged after 0 iterations.
Average uTau/uTauBench/diff 0.0608039 0.0617875 1.59189, patch bottomWall
tau_w converged after 0 iterations.
tau_w converged after 0 iterations.
tau_w converged after 0 iterations.
tau_w converged after 0 iterations.
tau_w converged after 0 iterations.
tau_w converged after 0 iterations.
tau_w converged after 0 iterations.
tau_w converged after 0 iterations.
tau_w converged after 0 iterations.
GAMG:  Solving for p, Initial residual = 0.752127, Final residual = 6.30889e-07, No Iterations 10
time step continuity errors : sum local = 2.59106e-18, global = 2.24266e-18, cumulative = 9.31303e-16
Pressure gradient source: uncorrected Ubar = 1, pressure gradient = 0.00392185
Updating nut for patch bottomWall
tau_w converged after 0 iterations.
tau_w converged after 0 iterations.
tau_w converged after 0 iterations.
tau_w converged after 0 iterations.
tau_w converged after 0 iterations.
tau_w converged after 0 iterations.
tau_w converged after 0 iterations.
tau_w converged after 0 iterations.
tau_w converged after 0 iterations.
ExecutionTime = 1.86 s  ClockTime = 2 s

Average uTau/uTauBench/diff 0.0608582 0.0618269 1.56674, patch bottomWall
tau_w converged after 0 iterations.
End

tau_w converged after 0 iterations.
tau_w converged after 0 iterations.
tau_w converged after 0 iterations.
tau_w converged after 0 iterations.
tau_w converged after 0 iterations.
tau_w converged after 0 iterations.
tau_w converged after 0 iterations.
tau_w converged after 0 iterations.
ExecutionTime = 1.89 s  ClockTime = 2 s

Courant Number mean: 0.00333314 max: 0.00337331
Time = 2.96

PIMPLE: iteration 1
DILUPBiCG:  Solving for Ux, Initial residual = 0.00161641, Final residual = 1.17633e-06, No Iterations 1
DILUPBiCG:  Solving for Uy, Initial residual = 0.00229665, Final residual = 1.89054e-06, No Iterations 1
DILUPBiCG:  Solving for Uz, Initial residual = 0.00157499, Final residual = 1.10922e-06, No Iterations 1
Pressure gradient source: uncorrected Ubar = 1, pressure gradient = 0.00392095
GAMG:  Solving for p, Initial residual = 0.999984, Final residual = 0.00554016, No Iterations 1
time step continuity errors : sum local = 1.5846e-15, global = 2.12276e-18, cumulative = 9.33426e-16
Pressure gradient source: uncorrected Ubar = 1, pressure gradient = 0.00392095
GAMG:  Solving for p, Initial residual = 0.973953, Final residual = 0.00513116, No Iterations 1
time step continuity errors : sum local = 1.30915e-15, global = 2.11972e-18, cumulative = 9.35545e-16
Pressure gradient source: uncorrected Ubar = 1, pressure gradient = 0.00392095
GAMG:  Solving for p, Initial residual = 0.748978, Final residual = 6.32682e-07, No Iterations 10
time step continuity errors : sum local = 2.45882e-18, global = 2.08725e-18, cumulative = 9.37633e-16
Pressure gradient source: uncorrected Ubar = 1, pressure gradient = 0.00392095
Updating nut for patch bottomWall
tau_w converged after 0 iterations.
tau_w converged after 0 iterations.
tau_w converged after 0 iterations.
tau_w converged after 0 iterations.
tau_w converged after 0 iterations.
tau_w converged after 0 iterations.
tau_w converged after 0 iterations.
tau_w converged after 0 iterations.
tau_w converged after 0 iterations.
Average uTau/uTauBench/diff 0.0608536 0.061819 1.56165, patch bottomWall
tau_w converged after 0 iterations.
tau_w converged after 0 iterations.
tau_w converged after 0 iterations.
tau_w converged after 0 iterations.
tau_w converged after 0 iterations.
tau_w converged after 0 iterations.
tau_w converged after 0 iterations.
tau_w converged after 0 iterations.
tau_w converged after 0 iterations.
ExecutionTime = 1.89 s  ClockTime = 2 s

Courant Number mean: 0.00333314 max: 0.00337344
Time = 2.97

PIMPLE: iteration 1
DILUPBiCG:  Solving for Ux, Initial residual = 0.00161078, Final residual = 1.17216e-06, No Iterations 1
DILUPBiCG:  Solving for Uy, Initial residual = 0.00273176, Final residual = 2.08588e-06, No Iterations 1
DILUPBiCG:  Solving for Uz, Initial residual = 0.00199899, Final residual = 1.69588e-06, No Iterations 1
Pressure gradient source: uncorrected Ubar = 1, pressure gradient = 0.00392006
GAMG:  Solving for p, Initial residual = 0.999981, Final residual = 0.00554695, No Iterations 1
time step continuity errors : sum local = 1.58764e-15, global = 2.10095e-18, cumulative = 9.39734e-16
Pressure gradient source: uncorrected Ubar = 1, pressure gradient = 0.00392006
GAMG:  Solving for p, Initial residual = 0.973849, Final residual = 0.00513794, No Iterations 1
time step continuity errors : sum local = 1.31083e-15, global = 2.10081e-18, cumulative = 9.41834e-16
Pressure gradient source: uncorrected Ubar = 1, pressure gradient = 0.00392006
GAMG:  Solving for p, Initial residual = 0.745806, Final residual = 6.33139e-07, No Iterations 10
time step continuity errors : sum local = 2.51543e-18, global = 2.09147e-18, cumulative = 9.43926e-16
Pressure gradient source: uncorrected Ubar = 1, pressure gradient = 0.00392006
Updating nut for patch bottomWall
tau_w converged after 0 iterations.
tau_w converged after 0 iterations.
tau_w converged after 0 iterations.
tau_w converged after 0 iterations.
tau_w converged after 0 iterations.
tau_w converged after 0 iterations.
tau_w converged after 0 iterations.
tau_w converged after 0 iterations.
tau_w converged after 0 iterations.
Average uTau/uTauBench/diff 0.060849 0.0618111 1.55656, patch bottomWall
tau_w converged after 0 iterations.
tau_w converged after 0 iterations.
tau_w converged after 0 iterations.
tau_w converged after 0 iterations.
tau_w converged after 0 iterations.
tau_w converged after 0 iterations.
tau_w converged after 0 iterations.
tau_w converged after 0 iterations.
tau_w converged after 0 iterations.
ExecutionTime = 1.9 s  ClockTime = 2 s

Courant Number mean: 0.00333314 max: 0.00337357
Time = 2.98

PIMPLE: iteration 1
DILUPBiCG:  Solving for Ux, Initial residual = 0.00160519, Final residual = 1.16802e-06, No Iterations 1
DILUPBiCG:  Solving for Uy, Initial residual = 0.0024552, Final residual = 2.09905e-06, No Iterations 1
DILUPBiCG:  Solving for Uz, Initial residual = 0.00264545, Final residual = 1.67089e-06, No Iterations 1
Pressure gradient source: uncorrected Ubar = 1, pressure gradient = 0.00391917
GAMG:  Solving for p, Initial residual = 0.999986, Final residual = 0.00555351, No Iterations 1
time step continuity errors : sum local = 1.59041e-15, global = 2.09359e-18, cumulative = 9.46019e-16
Pressure gradient source: uncorrected Ubar = 1, pressure gradient = 0.00391917
GAMG:  Solving for p, Initial residual = 0.97375, Final residual = 0.00514474, No Iterations 1
time step continuity errors : sum local = 1.31269e-15, global = 2.12515e-18, cumulative = 9.48145e-16
Pressure gradient source: uncorrected Ubar = 1, pressure gradient = 0.00391917
GAMG:  Solving for p, Initial residual = 0.742158, Final residual = 6.34279e-07, No Iterations 10
time step continuity errors : sum local = 2.5537e-18, global = 2.08728e-18, cumulative = 9.50232e-16
Pressure gradient source: uncorrected Ubar = 1, pressure gradient = 0.00391917
Updating nut for patch bottomWall
tau_w converged after 1 iterations.
tau_w converged after 1 iterations.
tau_w converged after 1 iterations.
tau_w converged after 1 iterations.
tau_w converged after 1 iterations.
tau_w converged after 1 iterations.
tau_w converged after 1 iterations.
tau_w converged after 1 iterations.
tau_w converged after 1 iterations.
Average uTau/uTauBench/diff 0.0608131 0.0618033 1.60208, patch bottomWall
tau_w converged after 1 iterations.
tau_w converged after 1 iterations.
tau_w converged after 1 iterations.
tau_w converged after 1 iterations.
tau_w converged after 1 iterations.
tau_w converged after 1 iterations.
tau_w converged after 1 iterations.
tau_w converged after 1 iterations.
tau_w converged after 1 iterations.
ExecutionTime = 1.91 s  ClockTime = 2 s

Courant Number mean: 0.00333314 max: 0.0033737
Time = 2.99

PIMPLE: iteration 1
DILUPBiCG:  Solving for Ux, Initial residual = 0.00159931, Final residual = 1.16368e-06, No Iterations 1
DILUPBiCG:  Solving for Uy, Initial residual = 0.00221984, Final residual = 2.17342e-06, No Iterations 1
DILUPBiCG:  Solving for Uz, Initial residual = 0.00223781, Final residual = 1.5692e-06, No Iterations 1
Pressure gradient source: uncorrected Ubar = 1, pressure gradient = 0.00391638
GAMG:  Solving for p, Initial residual = 0.999984, Final residual = 0.00556835, No Iterations 1
time step continuity errors : sum local = 1.59689e-15, global = 2.17108e-18, cumulative = 9.52403e-16
Pressure gradient source: uncorrected Ubar = 1, pressure gradient = 0.00391638
GAMG:  Solving for p, Initial residual = 0.973538, Final residual = 0.00516, No Iterations 1
time step continuity errors : sum local = 1.31707e-15, global = 2.13339e-18, cumulative = 9.54536e-16
Pressure gradient source: uncorrected Ubar = 1, pressure gradient = 0.00391638
GAMG:  Solving for p, Initial residual = 0.735403, Final residual = 6.36961e-07, No Iterations 10
time step continuity errors : sum local = 2.44084e-18, global = 2.09676e-18, cumulative = 9.56633e-16
Pressure gradient source: uncorrected Ubar = 1, pressure gradient = 0.00391638
Updating nut for patch bottomWall
tau_w converged after 0 iterations.
tau_w converged after 0 iterations.
tau_w converged after 0 iterations.
tau_w converged after 0 iterations.
tau_w converged after 0 iterations.
tau_w converged after 0 iterations.
tau_w converged after 0 iterations.
tau_w converged after 0 iterations.
tau_w converged after 0 iterations.
Average uTau/uTauBench/diff 0.0608085 0.0617954 1.59697, patch bottomWall
tau_w converged after 0 iterations.
tau_w converged after 0 iterations.
tau_w converged after 0 iterations.
tau_w converged after 0 iterations.
tau_w converged after 0 iterations.
tau_w converged after 0 iterations.
tau_w converged after 0 iterations.
tau_w converged after 0 iterations.
tau_w converged after 0 iterations.
ExecutionTime = 1.92 s  ClockTime = 2 s

Courant Number mean: 0.00333314 max: 0.00337383
Time = 3

PIMPLE: iteration 1
DILUPBiCG:  Solving for Ux, Initial residual = 0.00159343, Final residual = 1.15932e-06, No Iterations 1
DILUPBiCG:  Solving for Uy, Initial residual = 0.00242619, Final residual = 1.93295e-06, No Iterations 1
DILUPBiCG:  Solving for Uz, Initial residual = 0.00324101, Final residual = 2.58927e-06, No Iterations 1
Pressure gradient source: uncorrected Ubar = 1, pressure gradient = 0.00391548
GAMG:  Solving for p, Initial residual = 0.999982, Final residual = 0.00556869, No Iterations 1
time step continuity errors : sum local = 1.59611e-15, global = 2.14857e-18, cumulative = 9.58782e-16
Pressure gradient source: uncorrected Ubar = 1, pressure gradient = 0.00391548
GAMG:  Solving for p, Initial residual = 0.973534, Final residual = 0.00516005, No Iterations 1
time step continuity errors : sum local = 1.31628e-15, global = 2.15899e-18, cumulative = 9.60941e-16
Pressure gradient source: uncorrected Ubar = 1, pressure gradient = 0.00391548
GAMG:  Solving for p, Initial residual = 0.735319, Final residual = 6.36543e-07, No Iterations 10
time step continuity errors : sum local = 2.54528e-18, global = 2.17447e-18, cumulative = 9.63115e-16
Pressure gradient source: uncorrected Ubar = 1, pressure gradient = 0.00391548
Updating nut for patch bottomWall
tau_w converged after 0 iterations.
tau_w converged after 0 iterations.
tau_w converged after 0 iterations.
tau_w converged after 0 iterations.
tau_w converged after 0 iterations.
tau_w converged after 0 iterations.
tau_w converged after 0 iterations.
tau_w converged after 0 iterations.
tau_w converged after 0 iterations.
Average uTau/uTauBench/diff 0.0608039 0.0617875 1.59189, patch bottomWall
tau_w converged after 0 iterations.
tau_w converged after 0 iterations.
tau_w converged after 0 iterations.
tau_w converged after 0 iterations.
tau_w converged after 0 iterations.
tau_w converged after 0 iterations.
tau_w converged after 0 iterations.
tau_w converged after 0 iterations.
tau_w converged after 0 iterations.
ExecutionTime = 1.92 s  ClockTime = 2 s

End

