/*---------------------------------------------------------------------------*\
| =========                 |                                                 |
| \\      /  F ield         | OpenFOAM: The Open Source CFD Toolbox           |
|  \\    /   O peration     | Version:  3.0.1                                 |
|   \\  /    A nd           | Web:      www.OpenFOAM.org                      |
|    \\/     M anipulation  |                                                 |
\*---------------------------------------------------------------------------*/
Build  : 3.0.1-d8a290b55d28
Exec   : pimpleFoam -parallel
Date   : Jul 14 2017
Time   : 19:11:30
Host   : "ubuntu"
PID    : 12490
Case   : /home/salre674/Desktop/group_codes/libwallmodelledles/tests/testCases/test2
nProcs : 2
Slaves : 1("ubuntu.12491")
Pstream initialized with:
    floatTransfer      : 0
    nProcsSimpleSum    : 0
    commsType          : nonBlocking
    polling iterations : 0
sigFpe : Enabling floating point exception trapping (FOAM_SIGFPE).
fileModificationChecking : Monitoring run-time modified files using timeStampMaster
allowSystemOperations : Allowing user-supplied system call operations

// * * * * * * * * * * * * * * * * * * * * * * * * * * * * * * * * * * * * * //
Create time

Overriding DebugSwitches according to controlDict
Create mesh for time = 0


PIMPLE: Operating solver in PISO mode

Reading field p

Reading field U

Reading/calculating face flux field phi

Selecting incompressible transport model Newtonian
Selecting turbulence model type LES
Selecting LES turbulence model WALE
Selecting LES delta type cubeRootVol
Constructing LawofTheWall L1
[1] saleh o3-before patch().name= topWall
[1] saleh o3-before patch().size= 9
[1] saleh inside createMeshes()
[1] saleh createMesh patch().name= topWall
[1] saleh createMesh patch().size= 9
[1] saleh meshes_[][] = 0
[1] saleh meshes_[][] = 0.025
[1] saleh meshes_[][] = 0.05
[1] saleh meshes_[][] = 0.075
[1] saleh meshes_[][] = 0.1
[1] saleh meshes_[][] = 0
[1] saleh meshes_[][] = 0.025
[1] saleh meshes_[][] = 0.05
[1] saleh meshes_[][] = 0.075
[1] saleh meshes_[][] = 0.1
[1] saleh meshes_[][] = 0
[1] saleh meshes_[][] = 0.025
[1] saleh meshes_[][] = 0.05
[1] saleh meshes_[][] = 0.075
[1] saleh meshes_[][] = 0.1
[1] saleh meshes_[][] = 0
[1] saleh meshes_[][] = 0.025
[1] saleh meshes_[][] = 0.05
[1] saleh meshes_[][] = 0.075
[1] saleh meshes_[][] = 0.1
[1] saleh meshes_[][] = 0
[1] saleh meshes_[][] = 0.025
[1] saleh meshes_[][] = 0.05
[1] saleh meshes_[][] = 0.075
[1] saleh meshes_[][] = 0.1
[1] saleh meshes_[][] = 0
[1] saleh meshes_[][] = 0.025
[1] saleh meshes_[][] = 0.05
[1] saleh meshes_[][] = 0.075
[1] saleh meshes_[][] = 0.1
[1] saleh meshes_[][] = 0
[1] saleh meshes_[][] = 0.025
[1] saleh meshes_[][] = 0.05
[1] saleh meshes_[][] = 0.075
[1] saleh meshes_[][] = 0.1
[1] saleh meshes_[][] = 0
[1] saleh meshes_[][] = 0.025
[1] saleh meshes_[][] = 0.05
[1] saleh meshes_[][] = 0.075
[1] saleh meshes_[][] = 0.1
[1] saleh meshes_[][] = 0
[1] saleh meshes_[][] = 0.025
[1] saleh meshes_[][] = 0.05
[1] saleh meshes_[][] = 0.075
[1] saleh meshes_[][] = 0.1
[1] saleh o3-after patch().name= topWall
[1] saleh o3-after patch().size= 9
[1] saleh EquilibODE constructor, patch.name=topWall
[1] saleh EquilibODE constructor, patch.size=9
Constructing EddyVisocity E1
Constructing ODEWallModelfvPatchScalarField (o3) from copy and DimensionedField for patch topWall
[0] saleh o3-before patch().name= topWall
[0] saleh o3-before patch().size= 0
[0] saleh inside createMeshes()
[0] saleh createMesh patch().name= topWall
[0] saleh createMesh patch().size= 0
[0] saleh o3-after patch().name= topWall
[0] saleh o3-after patch().size= 0
[0] saleh EquilibODE constructor, patch.name=topWall
[0] saleh EquilibODE constructor, patch.size=0
WALECoeffs
{
    Ce              1.048;
    Ck              0.094;
    Cw              0.325;
}

No MRF models present

Creating finite volume options from "system/fvOptions"

Selecting finite volume options model type meanVelocityForce
    Source: momentumSource
    - selecting all cells
    - selected 90 cell(s) with volume 72
    Initial pressure gradient = 0


Starting time loop

Courant Number mean: 0.00333333 max: 0.00333333
Time = 0.01

PIMPLE: iteration 1
DILUPBiCG:  Solving for Ux, Initial residual = 1, Final residual = 0.00111219, No Iterations 1
DILUPBiCG:  Solving for Uy, Initial residual = 0.956168, Final residual = 0.00120238, No Iterations 1
DILUPBiCG:  Solving for Uz, Initial residual = 0.454347, Final residual = 0.000762464, No Iterations 1
Pressure gradient source: uncorrected Ubar = 0.999975, pressure gradient = 0.00249233
GAMG:  Solving for p, Initial residual = 1, Final residual = 0.00828781, No Iterations 11
time step continuity errors : sum local = 2.0434e-15, global = 5.93559e-20, cumulative = 5.93559e-20
Pressure gradient source: uncorrected Ubar = 0.999975, pressure gradient = 0.00249223
GAMG:  Solving for p, Initial residual = 0.990002, Final residual = 0.00787404, No Iterations 11
time step continuity errors : sum local = 1.9709e-15, global = 6.14256e-21, cumulative = 6.54985e-20
Pressure gradient source: uncorrected Ubar = 0.999975, pressure gradient = 0.00249223
GAMG:  Solving for p, Initial residual = 0.342333, Final residual = 8.15566e-07, No Iterations 41
time step continuity errors : sum local = 4.19386e-19, global = 5.0711e-20, cumulative = 1.16209e-19
Pressure gradient source: uncorrected Ubar = 0.999975, pressure gradient = 0.00249223
ExecutionTime = 0.01 s  ClockTime = 0 s

End

Finalising parallel run
